/*---------------------------------------------------------------------------*\
  =========                 |
  \\      /  F ield         | OpenFOAM: The Open Source CFD Toolbox
   \\    /   O peration     | Website:  https://openfoam.org
    \\  /    A nd           | Version:  6
     \\/     M anipulation  |
\*---------------------------------------------------------------------------*/
Build  : 6-fa1285188035
Exec   : Breastgland
Date   : Nov 10 2019
Time   : 19:02:23
Host   : "Spirit"
PID    : 4406
I/O    : uncollated
Case   : /home/rasunag27/Technical_courses/Breast_gland/Case1
nProcs : 1
sigFpe : Enabling floating point exception trapping (FOAM_SIGFPE).
fileModificationChecking : Monitoring run-time modified files using timeStampMaster (fileModificationSkew 10)
allowSystemOperations : Allowing user-supplied system call operations

// * * * * * * * * * * * * * * * * * * * * * * * * * * * * * * * * * * * * * //
Create time

Create mesh for time = 0


PIMPLE: No convergence criteria found


PIMPLE: Operating solver in PISO mode

Reading thermophysical properties

Reading field T

Reading field p_rgh

Reading field U

Reading/calculating face flux field phi

Selecting incompressible transport model Newtonian
Creating turbulence model

Selecting turbulence model type RAS
Selecting RAS turbulence model kEpsilon
RAS
{
    RASModel        kEpsilon;
    turbulence      on;
    printCoeffs     on;
    Cmu             0.09;
    C1              1.44;
    C2              1.92;
    C3              0;
    sigmak          1;
    sigmaEps        1.3;
}

Reading field alphat


Reading g

Reading hRef
Calculating field g.h

No MRF models present

Radiation model not active: radiationProperties not found
Selecting radiationModel none
Creating finite volume options from "constant/fvOptions"

Selecting finite volume options model type scalarSemiImplicitSource
    Source: heatSource
    - selecting cells using cellZone gland
    - selected 2500 cell(s) with volume 3.9752e-05
Courant Number mean: 0 max: 0

Starting time loop

Courant Number mean: 0 max: 0
Time = 0.001

DILUPBiCGStab:  Solving for T, Initial residual = 1, Final residual = 9.16398e-07, No Iterations 18
DICPCG:  Solving for p_rgh, Initial residual = 1, Final residual = 0.00890283, No Iterations 17
time step continuity errors : sum local = 3.50478e-10, global = 5.90575e-26, cumulative = 5.90575e-26
DICPCG:  Solving for p_rgh, Initial residual = 0.00677571, Final residual = 7.26933e-09, No Iterations 93
time step continuity errors : sum local = 5.70373e-16, global = 1.52679e-26, cumulative = 7.43254e-26
DILUPBiCGStab:  Solving for epsilon, Initial residual = 0.330925, Final residual = 3.4245e-07, No Iterations 13
DILUPBiCGStab:  Solving for k, Initial residual = 1, Final residual = 5.42002e-07, No Iterations 15
ExecutionTime = 0.08 s  ClockTime = 1 s

Courant Number mean: 1.2193e-08 max: 5.57418e-08
Time = 0.002

DILUPBiCGStab:  Solving for T, Initial residual = 0.963347, Final residual = 5.14591e-07, No Iterations 5
DICPCG:  Solving for p_rgh, Initial residual = 0.878119, Final residual = 0.00568728, No Iterations 5
time step continuity errors : sum local = 9.42689e-08, global = 7.99036e-20, cumulative = 7.99037e-20
DICPCG:  Solving for p_rgh, Initial residual = 0.00366961, Final residual = 8.98584e-09, No Iterations 89
time step continuity errors : sum local = 2.76416e-13, global = 7.99051e-20, cumulative = 1.59809e-19
DILUPBiCGStab:  Solving for epsilon, Initial residual = 0.971883, Final residual = 6.17388e-08, No Iterations 1
DILUPBiCGStab:  Solving for k, Initial residual = 0.0648834, Final residual = 9.55509e-07, No Iterations 3
ExecutionTime = 0.09 s  ClockTime = 1 s

Courant Number mean: 6.65871e-07 max: 3.65785e-05
Time = 0.003

DILUPBiCGStab:  Solving for T, Initial residual = 0.90351, Final residual = 3.46058e-07, No Iterations 5
DICPCG:  Solving for p_rgh, Initial residual = 0.305306, Final residual = 0.00184261, No Iterations 5
time step continuity errors : sum local = 8.25122e-08, global = -2.55697e-19, cumulative = -9.58881e-20
DICPCG:  Solving for p_rgh, Initial residual = 0.00171857, Final residual = 7.66531e-09, No Iterations 87
time step continuity errors : sum local = 4.42988e-13, global = -2.55696e-19, cumulative = -3.51584e-19
DILUPBiCGStab:  Solving for epsilon, Initial residual = 0.112582, Final residual = 1.73748e-07, No Iterations 2
DILUPBiCGStab:  Solving for k, Initial residual = 0.0419122, Final residual = 6.33066e-07, No Iterations 3
ExecutionTime = 0.1 s  ClockTime = 1 s

Courant Number mean: 1.51548e-06 max: 7.39604e-05
Time = 0.004

DILUPBiCGStab:  Solving for T, Initial residual = 0.812862, Final residual = 5.04036e-07, No Iterations 5
DICPCG:  Solving for p_rgh, Initial residual = 0.181728, Final residual = 0.00116654, No Iterations 5
time step continuity errors : sum local = 8.30186e-08, global = -6.39209e-20, cumulative = -4.15505e-19
DICPCG:  Solving for p_rgh, Initial residual = 0.0012022, Final residual = 9.78702e-09, No Iterations 87
time step continuity errors : sum local = 8.15482e-13, global = -6.39318e-20, cumulative = -4.79437e-19
DILUPBiCGStab:  Solving for epsilon, Initial residual = 0.0746967, Final residual = 1.75696e-07, No Iterations 2
DILUPBiCGStab:  Solving for k, Initial residual = 0.0325562, Final residual = 4.08363e-07, No Iterations 3
ExecutionTime = 0.1 s  ClockTime = 1 s

Courant Number mean: 2.5769e-06 max: 0.000110656
Time = 0.005

DILUPBiCGStab:  Solving for T, Initial residual = 0.593803, Final residual = 2.21478e-07, No Iterations 5
DICPCG:  Solving for p_rgh, Initial residual = 0.127884, Final residual = 0.000865822, No Iterations 5
time step continuity errors : sum local = 8.3353e-08, global = 6.39254e-20, cumulative = -4.15511e-19
DICPCG:  Solving for p_rgh, Initial residual = 0.000932739, Final residual = 8.24908e-09, No Iterations 87
time step continuity errors : sum local = 8.88529e-13, global = 6.39282e-20, cumulative = -3.51583e-19
DILUPBiCGStab:  Solving for epsilon, Initial residual = 0.0567808, Final residual = 1.93985e-07, No Iterations 2
DILUPBiCGStab:  Solving for k, Initial residual = 0.0272672, Final residual = 2.87559e-07, No Iterations 3
ExecutionTime = 0.11 s  ClockTime = 1 s

Courant Number mean: 3.8508e-06 max: 0.000145726
Time = 0.006

DILUPBiCGStab:  Solving for T, Initial residual = 0.472534, Final residual = 5.85059e-07, No Iterations 4
DICPCG:  Solving for p_rgh, Initial residual = 0.0980126, Final residual = 0.000700045, No Iterations 5
time step continuity errors : sum local = 8.41322e-08, global = 4.65591e-21, cumulative = -3.46927e-19
DICPCG:  Solving for p_rgh, Initial residual = 0.000772071, Final residual = 6.8537e-09, No Iterations 87
time step continuity errors : sum local = 8.97902e-13, global = 4.65081e-21, cumulative = -3.42276e-19
DILUPBiCGStab:  Solving for epsilon, Initial residual = 0.0468342, Final residual = 1.86453e-07, No Iterations 2
DILUPBiCGStab:  Solving for k, Initial residual = 0.0238158, Final residual = 2.14392e-07, No Iterations 3
ExecutionTime = 0.12 s  ClockTime = 1 s

Courant Number mean: 5.33458e-06 max: 0.000179346
Time = 0.007

DILUPBiCGStab:  Solving for T, Initial residual = 0.397569, Final residual = 3.4191e-07, No Iterations 4
DICPCG:  Solving for p_rgh, Initial residual = 0.0789037, Final residual = 0.000594234, No Iterations 5
time step continuity errors : sum local = 8.50322e-08, global = 6.92638e-20, cumulative = -2.73013e-19
DICPCG:  Solving for p_rgh, Initial residual = 0.000664812, Final residual = 9.12484e-09, No Iterations 86
time step continuity errors : sum local = 1.39883e-12, global = 6.92525e-20, cumulative = -2.0376e-19
DILUPBiCGStab:  Solving for epsilon, Initial residual = 0.0400504, Final residual = 1.7016e-07, No Iterations 2
DILUPBiCGStab:  Solving for k, Initial residual = 0.0213412, Final residual = 1.66165e-07, No Iterations 3
ExecutionTime = 0.14 s  ClockTime = 1 s

Courant Number mean: 7.02366e-06 max: 0.000211359
Time = 0.008

DILUPBiCGStab:  Solving for T, Initial residual = 0.346221, Final residual = 7.49435e-07, No Iterations 4
DICPCG:  Solving for p_rgh, Initial residual = 0.0657398, Final residual = 0.000520555, No Iterations 5
time step continuity errors : sum local = 8.59111e-08, global = 4.26076e-20, cumulative = -1.61152e-19
DICPCG:  Solving for p_rgh, Initial residual = 0.000588909, Final residual = 8.98399e-09, No Iterations 86
time step continuity errors : sum local = 1.56908e-12, global = 4.26158e-20, cumulative = -1.18537e-19
DILUPBiCGStab:  Solving for epsilon, Initial residual = 0.0353099, Final residual = 1.52361e-07, No Iterations 2
DILUPBiCGStab:  Solving for k, Initial residual = 0.0194649, Final residual = 1.32538e-07, No Iterations 3
ExecutionTime = 0.15 s  ClockTime = 1 s

Courant Number mean: 8.91676e-06 max: 0.000241978
Time = 0.009

DILUPBiCGStab:  Solving for T, Initial residual = 0.308605, Final residual = 5.07442e-07, No Iterations 4
DICPCG:  Solving for p_rgh, Initial residual = 0.0561379, Final residual = 0.000466039, No Iterations 5
time step continuity errors : sum local = 8.67445e-08, global = -1.06447e-20, cumulative = -1.29181e-19
DICPCG:  Solving for p_rgh, Initial residual = 0.000531511, Final residual = 8.08744e-09, No Iterations 86
time step continuity errors : sum local = 1.57918e-12, global = -1.06628e-20, cumulative = -1.39844e-19
DILUPBiCGStab:  Solving for epsilon, Initial residual = 0.0317475, Final residual = 1.35548e-07, No Iterations 2
DILUPBiCGStab:  Solving for k, Initial residual = 0.0179793, Final residual = 1.08152e-07, No Iterations 3
ExecutionTime = 0.16 s  ClockTime = 1 s

Courant Number mean: 1.10102e-05 max: 0.000271206
Time = 0.01

DILUPBiCGStab:  Solving for T, Initial residual = 0.279761, Final residual = 3.56563e-07, No Iterations 4
DICPCG:  Solving for p_rgh, Initial residual = 0.0488343, Final residual = 0.000423819, No Iterations 5
time step continuity errors : sum local = 8.74926e-08, global = -6.32524e-20, cumulative = -2.03097e-19
DICPCG:  Solving for p_rgh, Initial residual = 0.000486415, Final residual = 7.32412e-09, No Iterations 86
time step continuity errors : sum local = 1.57572e-12, global = -6.32632e-20, cumulative = -2.6636e-19
DILUPBiCGStab:  Solving for epsilon, Initial residual = 0.0289629, Final residual = 1.20329e-07, No Iterations 2
DILUPBiCGStab:  Solving for k, Initial residual = 0.0167708, Final residual = 9.73853e-07, No Iterations 2
ExecutionTime = 0.17 s  ClockTime = 1 s

Courant Number mean: 1.33033e-05 max: 0.000298909
Time = 0.011

DILUPBiCGStab:  Solving for T, Initial residual = 0.256851, Final residual = 2.58096e-07, No Iterations 4
DICPCG:  Solving for p_rgh, Initial residual = 0.0431135, Final residual = 0.000390212, No Iterations 5
time step continuity errors : sum local = 8.82065e-08, global = 5.39499e-20, cumulative = -2.1241e-19
DICPCG:  Solving for p_rgh, Initial residual = 0.000449858, Final residual = 6.74073e-09, No Iterations 86
time step continuity errors : sum local = 1.5797e-12, global = 5.39503e-20, cumulative = -1.5846e-19
DILUPBiCGStab:  Solving for epsilon, Initial residual = 0.026772, Final residual = 1.07141e-07, No Iterations 2
DILUPBiCGStab:  Solving for k, Initial residual = 0.0157429, Final residual = 8.39897e-07, No Iterations 2
ExecutionTime = 0.18 s  ClockTime = 1 s

Courant Number mean: 1.57908e-05 max: 0.000325157
Time = 0.012

DILUPBiCGStab:  Solving for T, Initial residual = 0.238165, Final residual = 1.91368e-07, No Iterations 4
DICPCG:  Solving for p_rgh, Initial residual = 0.0385267, Final residual = 0.000362909, No Iterations 5
time step continuity errors : sum local = 8.89283e-08, global = 1.70459e-19, cumulative = 1.19997e-20
DICPCG:  Solving for p_rgh, Initial residual = 0.00041963, Final residual = 9.98199e-09, No Iterations 85
time step continuity errors : sum local = 2.52868e-12, global = 1.70447e-19, cumulative = 1.82447e-19
DILUPBiCGStab:  Solving for epsilon, Initial residual = 0.0250088, Final residual = 9.56721e-08, No Iterations 2
DILUPBiCGStab:  Solving for k, Initial residual = 0.0148451, Final residual = 7.30795e-07, No Iterations 2
ExecutionTime = 0.19 s  ClockTime = 1 s

Courant Number mean: 1.84709e-05 max: 0.000350236
Time = 0.013

DILUPBiCGStab:  Solving for T, Initial residual = 0.222597, Final residual = 9.72121e-07, No Iterations 3
DICPCG:  Solving for p_rgh, Initial residual = 0.0347545, Final residual = 0.000340546, No Iterations 5
time step continuity errors : sum local = 8.97237e-08, global = 5.33674e-21, cumulative = 1.87783e-19
DICPCG:  Solving for p_rgh, Initial residual = 0.000394678, Final residual = 9.71959e-09, No Iterations 85
time step continuity errors : sum local = 2.63824e-12, global = 5.30701e-21, cumulative = 1.9309e-19
DILUPBiCGStab:  Solving for epsilon, Initial residual = 0.0235349, Final residual = 8.56596e-08, No Iterations 2
DILUPBiCGStab:  Solving for k, Initial residual = 0.014036, Final residual = 6.39921e-07, No Iterations 2
ExecutionTime = 0.21 s  ClockTime = 1 s

Courant Number mean: 2.13397e-05 max: 0.000386377
Time = 0.014

DILUPBiCGStab:  Solving for T, Initial residual = 0.2094, Final residual = 7.71411e-07, No Iterations 3
DICPCG:  Solving for p_rgh, Initial residual = 0.0316021, Final residual = 0.00021038, No Iterations 6
time step continuity errors : sum local = 5.92303e-08, global = -1.27864e-19, cumulative = 6.52264e-20
DICPCG:  Solving for p_rgh, Initial residual = 0.000241773, Final residual = 9.94989e-09, No Iterations 84
time step continuity errors : sum local = 2.87385e-12, global = -1.27768e-19, cumulative = -6.2542e-20
DILUPBiCGStab:  Solving for epsilon, Initial residual = 0.0222685, Final residual = 7.68221e-08, No Iterations 2
DILUPBiCGStab:  Solving for k, Initial residual = 0.0133228, Final residual = 5.64415e-07, No Iterations 2
ExecutionTime = 0.22 s  ClockTime = 1 s

Courant Number mean: 2.43951e-05 max: 0.000450186
Time = 0.015

DILUPBiCGStab:  Solving for T, Initial residual = 0.19805, Final residual = 6.20521e-07, No Iterations 3
DICPCG:  Solving for p_rgh, Initial residual = 0.0289195, Final residual = 0.000214285, No Iterations 6
time step continuity errors : sum local = 6.40676e-08, global = -1.53372e-20, cumulative = -7.78792e-20
DICPCG:  Solving for p_rgh, Initial residual = 0.00024782, Final residual = 9.36769e-09, No Iterations 84
time step continuity errors : sum local = 2.86744e-12, global = -1.53276e-20, cumulative = -9.32068e-20
DILUPBiCGStab:  Solving for epsilon, Initial residual = 0.0211995, Final residual = 6.91583e-08, No Iterations 2
DILUPBiCGStab:  Solving for k, Initial residual = 0.0126911, Final residual = 5.01067e-07, No Iterations 2
ExecutionTime = 0.23 s  ClockTime = 1 s

Courant Number mean: 2.76298e-05 max: 0.00051864
Time = 0.016

DILUPBiCGStab:  Solving for T, Initial residual = 0.18817, Final residual = 5.05148e-07, No Iterations 3
DICPCG:  Solving for p_rgh, Initial residual = 0.0266461, Final residual = 0.00020344, No Iterations 6
time step continuity errors : sum local = 6.42282e-08, global = 1.86395e-19, cumulative = 9.31879e-20
DICPCG:  Solving for p_rgh, Initial residual = 0.000234792, Final residual = 9.0486e-09, No Iterations 84
time step continuity errors : sum local = 2.91962e-12, global = 1.86469e-19, cumulative = 2.79657e-19
DILUPBiCGStab:  Solving for epsilon, Initial residual = 0.0202948, Final residual = 6.25477e-08, No Iterations 2
DILUPBiCGStab:  Solving for k, Initial residual = 0.0121275, Final residual = 4.47418e-07, No Iterations 2
ExecutionTime = 0.24 s  ClockTime = 1 s

Courant Number mean: 3.10439e-05 max: 0.000593486
Time = 0.017

DILUPBiCGStab:  Solving for T, Initial residual = 0.179484, Final residual = 4.15747e-07, No Iterations 3
DICPCG:  Solving for p_rgh, Initial residual = 0.0246898, Final residual = 0.000198934, No Iterations 6
time step continuity errors : sum local = 6.60849e-08, global = 5.33577e-21, cumulative = 2.84992e-19
DICPCG:  Solving for p_rgh, Initial residual = 0.000230821, Final residual = 7.69049e-09, No Iterations 84
time step continuity errors : sum local = 2.60631e-12, global = 5.35356e-21, cumulative = 2.90346e-19
DILUPBiCGStab:  Solving for epsilon, Initial residual = 0.0195129, Final residual = 5.67892e-08, No Iterations 2
DILUPBiCGStab:  Solving for k, Initial residual = 0.0116208, Final residual = 4.01751e-07, No Iterations 2
ExecutionTime = 0.25 s  ClockTime = 1 s

Courant Number mean: 3.46345e-05 max: 0.000670249
Time = 0.018

DILUPBiCGStab:  Solving for T, Initial residual = 0.17178, Final residual = 3.45442e-07, No Iterations 3
DICPCG:  Solving for p_rgh, Initial residual = 0.0229804, Final residual = 0.000191934, No Iterations 6
time step continuity errors : sum local = 6.68104e-08, global = 6.39264e-20, cumulative = 3.54272e-19
DICPCG:  Solving for p_rgh, Initial residual = 0.000222577, Final residual = 8.01627e-09, No Iterations 84
time step continuity errors : sum local = 2.84184e-12, global = 6.39564e-20, cumulative = 4.18229e-19
DILUPBiCGStab:  Solving for epsilon, Initial residual = 0.0188268, Final residual = 5.17136e-08, No Iterations 2
DILUPBiCGStab:  Solving for k, Initial residual = 0.0111625, Final residual = 3.62673e-07, No Iterations 2
ExecutionTime = 0.26 s  ClockTime = 1 s

Courant Number mean: 3.83974e-05 max: 0.000752966
Time = 0.019

DILUPBiCGStab:  Solving for T, Initial residual = 0.164894, Final residual = 2.89444e-07, No Iterations 3
DICPCG:  Solving for p_rgh, Initial residual = 0.0214836, Final residual = 0.000188147, No Iterations 6
time step continuity errors : sum local = 6.84332e-08, global = 3.72754e-20, cumulative = 4.55504e-19
DICPCG:  Solving for p_rgh, Initial residual = 0.000218797, Final residual = 6.64174e-09, No Iterations 84
time step continuity errors : sum local = 2.45672e-12, global = 3.72368e-20, cumulative = 4.92741e-19
DILUPBiCGStab:  Solving for epsilon, Initial residual = 0.018221, Final residual = 4.72478e-08, No Iterations 2
DILUPBiCGStab:  Solving for k, Initial residual = 0.0107449, Final residual = 3.29057e-07, No Iterations 2
ExecutionTime = 0.27 s  ClockTime = 1 s

Courant Number mean: 4.23415e-05 max: 0.000838229
Time = 0.02

DILUPBiCGStab:  Solving for T, Initial residual = 0.158697, Final residual = 2.44354e-07, No Iterations 3
DICPCG:  Solving for p_rgh, Initial residual = 0.0201586, Final residual = 0.000183114, No Iterations 6
time step continuity errors : sum local = 6.93781e-08, global = 1.59621e-20, cumulative = 5.08703e-19
DICPCG:  Solving for p_rgh, Initial residual = 0.000212837, Final residual = 9.59078e-09, No Iterations 83
time step continuity errors : sum local = 3.6958e-12, global = 1.5987e-20, cumulative = 5.2469e-19
DILUPBiCGStab:  Solving for epsilon, Initial residual = 0.0176751, Final residual = 4.32954e-08, No Iterations 2
DILUPBiCGStab:  Solving for k, Initial residual = 0.0103627, Final residual = 2.99814e-07, No Iterations 2
ExecutionTime = 0.28 s  ClockTime = 1 s

Courant Number mean: 4.64656e-05 max: 0.000927404
Time = 0.021

DILUPBiCGStab:  Solving for T, Initial residual = 0.153088, Final residual = 2.07709e-07, No Iterations 3
DICPCG:  Solving for p_rgh, Initial residual = 0.0189754, Final residual = 0.000180201, No Iterations 6
time step continuity errors : sum local = 7.09612e-08, global = 3.2624e-20, cumulative = 5.57314e-19
DICPCG:  Solving for p_rgh, Initial residual = 0.00020951, Final residual = 8.98705e-09, No Iterations 83
time step continuity errors : sum local = 3.59472e-12, global = 3.27239e-20, cumulative = 5.90038e-19
DILUPBiCGStab:  Solving for epsilon, Initial residual = 0.0171754, Final residual = 3.97656e-08, No Iterations 2
DILUPBiCGStab:  Solving for k, Initial residual = 0.0100111, Final residual = 2.74138e-07, No Iterations 2
ExecutionTime = 0.29 s  ClockTime = 1 s

Courant Number mean: 5.07647e-05 max: 0.00102099
Time = 0.022

DILUPBiCGStab:  Solving for T, Initial residual = 0.147982, Final residual = 1.77668e-07, No Iterations 3
DICPCG:  Solving for p_rgh, Initial residual = 0.0179165, Final residual = 0.000176573, No Iterations 6
time step continuity errors : sum local = 7.21013e-08, global = 1.0129e-19, cumulative = 6.91328e-19
DICPCG:  Solving for p_rgh, Initial residual = 0.000204992, Final residual = 7.98789e-09, No Iterations 83
time step continuity errors : sum local = 3.31017e-12, global = 1.0117e-19, cumulative = 7.92498e-19
DILUPBiCGStab:  Solving for epsilon, Initial residual = 0.0167271, Final residual = 3.66308e-08, No Iterations 2
DILUPBiCGStab:  Solving for k, Initial residual = 0.00968522, Final residual = 2.51456e-07, No Iterations 2
ExecutionTime = 0.3 s  ClockTime = 1 s

Courant Number mean: 5.52351e-05 max: 0.00111655
Time = 0.023

DILUPBiCGStab:  Solving for T, Initial residual = 0.143312, Final residual = 1.52849e-07, No Iterations 3
DICPCG:  Solving for p_rgh, Initial residual = 0.0169606, Final residual = 0.000149453, No Iterations 7
time step continuity errors : sum local = 6.32649e-08, global = 4.523e-20, cumulative = 8.37728e-19
DICPCG:  Solving for p_rgh, Initial residual = 0.000178347, Final residual = 9.67847e-09, No Iterations 80
time step continuity errors : sum local = 4.15055e-12, global = 4.52831e-20, cumulative = 8.83011e-19
DILUPBiCGStab:  Solving for epsilon, Initial residual = 0.0163241, Final residual = 3.38388e-08, No Iterations 2
DILUPBiCGStab:  Solving for k, Initial residual = 0.00937717, Final residual = 2.31188e-07, No Iterations 2
ExecutionTime = 0.31 s  ClockTime = 1 s

Courant Number mean: 5.98745e-05 max: 0.00121514
Time = 0.024

DILUPBiCGStab:  Solving for T, Initial residual = 0.139023, Final residual = 1.32197e-07, No Iterations 3
DICPCG:  Solving for p_rgh, Initial residual = 0.016093, Final residual = 0.000156828, No Iterations 8
time step continuity errors : sum local = 6.84954e-08, global = -6.92349e-20, cumulative = 8.13776e-19
DICPCG:  Solving for p_rgh, Initial residual = 0.000186296, Final residual = 9.12364e-09, No Iterations 81
time step continuity errors : sum local = 4.0383e-12, global = -6.91622e-20, cumulative = 7.44614e-19
DILUPBiCGStab:  Solving for epsilon, Initial residual = 0.015961, Final residual = 3.13514e-08, No Iterations 2
DILUPBiCGStab:  Solving for k, Initial residual = 0.00908659, Final residual = 2.13052e-07, No Iterations 2
ExecutionTime = 0.32 s  ClockTime = 1 s

Courant Number mean: 6.46827e-05 max: 0.00131898
Time = 0.025

DILUPBiCGStab:  Solving for T, Initial residual = 0.135068, Final residual = 1.14903e-07, No Iterations 3
DICPCG:  Solving for p_rgh, Initial residual = 0.0153057, Final residual = 0.000151957, No Iterations 7
time step continuity errors : sum local = 6.85335e-08, global = 2.39119e-20, cumulative = 7.68525e-19
DICPCG:  Solving for p_rgh, Initial residual = 0.00018211, Final residual = 6.30787e-09, No Iterations 83
time step continuity errors : sum local = 2.873e-12, global = 2.38744e-20, cumulative = 7.924e-19
DILUPBiCGStab:  Solving for epsilon, Initial residual = 0.0156315, Final residual = 9.61421e-07, No Iterations 2
DILUPBiCGStab:  Solving for k, Initial residual = 0.00881131, Final residual = 1.96746e-07, No Iterations 2
ExecutionTime = 0.34 s  ClockTime = 1 s

Courant Number mean: 6.96501e-05 max: 0.00142298
Time = 0.026

DILUPBiCGStab:  Solving for T, Initial residual = 0.131408, Final residual = 9.42194e-07, No Iterations 3
DICPCG:  Solving for p_rgh, Initial residual = 0.014588, Final residual = 0.000126356, No Iterations 16
time step continuity errors : sum local = 5.86476e-08, global = -1.61838e-20, cumulative = 7.76216e-19
DICPCG:  Solving for p_rgh, Initial residual = 0.000177393, Final residual = 7.84104e-09, No Iterations 80
time step continuity errors : sum local = 3.67944e-12, global = -1.6123e-20, cumulative = 7.60093e-19
DILUPBiCGStab:  Solving for epsilon, Initial residual = 0.0153338, Final residual = 9.14073e-07, No Iterations 2
DILUPBiCGStab:  Solving for k, Initial residual = 0.00855357, Final residual = 1.82125e-07, No Iterations 2
ExecutionTime = 0.35 s  ClockTime = 1 s

Courant Number mean: 7.48183e-05 max: 0.00153323
Time = 0.027

DILUPBiCGStab:  Solving for T, Initial residual = 0.128009, Final residual = 8.4143e-07, No Iterations 3
DICPCG:  Solving for p_rgh, Initial residual = 0.0139299, Final residual = 0.000134068, No Iterations 17
time step continuity errors : sum local = 6.40456e-08, global = -5.52602e-20, cumulative = 7.04833e-19
DICPCG:  Solving for p_rgh, Initial residual = 0.000193737, Final residual = 8.41329e-09, No Iterations 80
time step continuity errors : sum local = 4.05783e-12, global = -5.5212e-20, cumulative = 6.49621e-19
DILUPBiCGStab:  Solving for epsilon, Initial residual = 0.0150623, Final residual = 8.70272e-07, No Iterations 2
DILUPBiCGStab:  Solving for k, Initial residual = 0.00831207, Final residual = 1.68996e-07, No Iterations 2
ExecutionTime = 0.36 s  ClockTime = 1 s

Courant Number mean: 8.01488e-05 max: 0.00164653
Time = 0.028

DILUPBiCGStab:  Solving for T, Initial residual = 0.124843, Final residual = 7.54083e-07, No Iterations 3
DICPCG:  Solving for p_rgh, Initial residual = 0.0133264, Final residual = 0.000131714, No Iterations 17
time step continuity errors : sum local = 6.45792e-08, global = -4.5863e-20, cumulative = 6.03758e-19
DICPCG:  Solving for p_rgh, Initial residual = 0.000191744, Final residual = 8.47858e-09, No Iterations 80
time step continuity errors : sum local = 4.19932e-12, global = -4.58876e-20, cumulative = 5.5787e-19
DILUPBiCGStab:  Solving for epsilon, Initial residual = 0.014814, Final residual = 8.29885e-07, No Iterations 2
DILUPBiCGStab:  Solving for k, Initial residual = 0.00808528, Final residual = 1.57143e-07, No Iterations 2
ExecutionTime = 0.37 s  ClockTime = 1 s

Courant Number mean: 8.56371e-05 max: 0.00176176
Time = 0.029

DILUPBiCGStab:  Solving for T, Initial residual = 0.121887, Final residual = 6.78045e-07, No Iterations 3
DICPCG:  Solving for p_rgh, Initial residual = 0.0127681, Final residual = 0.000119561, No Iterations 18
time step continuity errors : sum local = 6.02007e-08, global = 7.8193e-21, cumulative = 5.6569e-19
DICPCG:  Solving for p_rgh, Initial residual = 0.000182562, Final residual = 9.53138e-09, No Iterations 81
time step continuity errors : sum local = 4.83674e-12, global = 7.9699e-21, cumulative = 5.73659e-19
DILUPBiCGStab:  Solving for epsilon, Initial residual = 0.0145846, Final residual = 7.92243e-07, No Iterations 2
DILUPBiCGStab:  Solving for k, Initial residual = 0.00787176, Final residual = 1.46407e-07, No Iterations 2
ExecutionTime = 0.38 s  ClockTime = 1 s

Courant Number mean: 9.12827e-05 max: 0.00187717
Time = 0.03

DILUPBiCGStab:  Solving for T, Initial residual = 0.119119, Final residual = 6.1157e-07, No Iterations 3
DICPCG:  Solving for p_rgh, Initial residual = 0.0122532, Final residual = 0.000122347, No Iterations 18
time step continuity errors : sum local = 6.30933e-08, global = 4.78279e-20, cumulative = 6.21487e-19
DICPCG:  Solving for p_rgh, Initial residual = 0.000182541, Final residual = 9.06226e-09, No Iterations 81
time step continuity errors : sum local = 4.70947e-12, global = 4.79639e-20, cumulative = 6.69451e-19
DILUPBiCGStab:  Solving for epsilon, Initial residual = 0.0143716, Final residual = 7.57049e-07, No Iterations 2
DILUPBiCGStab:  Solving for k, Initial residual = 0.00767045, Final residual = 1.36656e-07, No Iterations 2
ExecutionTime = 0.39 s  ClockTime = 1 s

Courant Number mean: 9.70816e-05 max: 0.00199899
Time = 0.031

DILUPBiCGStab:  Solving for T, Initial residual = 0.116522, Final residual = 5.53234e-07, No Iterations 3
DICPCG:  Solving for p_rgh, Initial residual = 0.011773, Final residual = 0.000101758, No Iterations 19
time step continuity errors : sum local = 5.37887e-08, global = -4.25948e-20, cumulative = 6.26857e-19
DICPCG:  Solving for p_rgh, Initial residual = 0.000172737, Final residual = 6.47864e-09, No Iterations 82
time step continuity errors : sum local = 3.45076e-12, global = -4.26018e-20, cumulative = 5.84255e-19
DILUPBiCGStab:  Solving for epsilon, Initial residual = 0.0141668, Final residual = 7.23581e-07, No Iterations 2
DILUPBiCGStab:  Solving for k, Initial residual = 0.0074804, Final residual = 1.27777e-07, No Iterations 2
ExecutionTime = 0.4 s  ClockTime = 1 s

Courant Number mean: 0.000103035 max: 0.00212284
Time = 0.032

DILUPBiCGStab:  Solving for T, Initial residual = 0.114081, Final residual = 5.0184e-07, No Iterations 3
DICPCG:  Solving for p_rgh, Initial residual = 0.0113255, Final residual = 0.000101495, No Iterations 19
time step continuity errors : sum local = 5.48505e-08, global = 3.22252e-20, cumulative = 6.1648e-19
DICPCG:  Solving for p_rgh, Initial residual = 0.000172603, Final residual = 9.76756e-09, No Iterations 81
time step continuity errors : sum local = 5.3081e-12, global = 3.20548e-20, cumulative = 6.48535e-19
DILUPBiCGStab:  Solving for epsilon, Initial residual = 0.0139698, Final residual = 6.91702e-07, No Iterations 2
DILUPBiCGStab:  Solving for k, Initial residual = 0.00730047, Final residual = 1.19671e-07, No Iterations 2
ExecutionTime = 0.41 s  ClockTime = 1 s

Courant Number mean: 0.000109136 max: 0.00224802
Time = 0.033

DILUPBiCGStab:  Solving for T, Initial residual = 0.11178, Final residual = 4.56387e-07, No Iterations 3
DICPCG:  Solving for p_rgh, Initial residual = 0.010906, Final residual = 0.00010052, No Iterations 19
time step continuity errors : sum local = 5.55293e-08, global = -1.88825e-20, cumulative = 6.29652e-19
DICPCG:  Solving for p_rgh, Initial residual = 0.000172464, Final residual = 9.54964e-09, No Iterations 81
time step continuity errors : sum local = 5.30274e-12, global = -1.86164e-20, cumulative = 6.11036e-19
DILUPBiCGStab:  Solving for epsilon, Initial residual = 0.0137835, Final residual = 6.61495e-07, No Iterations 2
DILUPBiCGStab:  Solving for k, Initial residual = 0.00713012, Final residual = 1.12259e-07, No Iterations 2
ExecutionTime = 0.42 s  ClockTime = 1 s

Courant Number mean: 0.000115383 max: 0.00237548
Time = 0.034

DILUPBiCGStab:  Solving for T, Initial residual = 0.109607, Final residual = 4.16065e-07, No Iterations 3
DICPCG:  Solving for p_rgh, Initial residual = 0.0105151, Final residual = 0.000100258, No Iterations 19
time step continuity errors : sum local = 5.65498e-08, global = 2.6467e-20, cumulative = 6.37503e-19
DICPCG:  Solving for p_rgh, Initial residual = 0.000172459, Final residual = 9.46258e-09, No Iterations 81
time step continuity errors : sum local = 5.36454e-12, global = 2.67129e-20, cumulative = 6.64216e-19
DILUPBiCGStab:  Solving for epsilon, Initial residual = 0.0136098, Final residual = 6.33075e-07, No Iterations 2
DILUPBiCGStab:  Solving for k, Initial residual = 0.00696856, Final residual = 1.05471e-07, No Iterations 2
ExecutionTime = 0.44 s  ClockTime = 1 s

Courant Number mean: 0.000121778 max: 0.00250758
Time = 0.035

DILUPBiCGStab:  Solving for T, Initial residual = 0.107553, Final residual = 3.80184e-07, No Iterations 3
DICPCG:  Solving for p_rgh, Initial residual = 0.0101474, Final residual = 9.96903e-05, No Iterations 19
time step continuity errors : sum local = 5.73823e-08, global = 6.6636e-20, cumulative = 7.30852e-19
DICPCG:  Solving for p_rgh, Initial residual = 0.000172297, Final residual = 9.31445e-09, No Iterations 81
time step continuity errors : sum local = 5.38792e-12, global = 6.67179e-20, cumulative = 7.9757e-19
DILUPBiCGStab:  Solving for epsilon, Initial residual = 0.0134486, Final residual = 6.06219e-07, No Iterations 2
DILUPBiCGStab:  Solving for k, Initial residual = 0.0068154, Final residual = 9.92509e-08, No Iterations 2
ExecutionTime = 0.45 s  ClockTime = 1 s

Courant Number mean: 0.000128318 max: 0.00264078
Time = 0.036

DILUPBiCGStab:  Solving for T, Initial residual = 0.105606, Final residual = 3.48163e-07, No Iterations 3
DICPCG:  Solving for p_rgh, Initial residual = 0.00980143, Final residual = 9.01762e-05, No Iterations 20
time step continuity errors : sum local = 5.29662e-08, global = 4.01406e-20, cumulative = 8.3771e-19
DICPCG:  Solving for p_rgh, Initial residual = 0.000162807, Final residual = 6.81506e-09, No Iterations 82
time step continuity errors : sum local = 4.0217e-12, global = 4.00683e-20, cumulative = 8.77779e-19
DILUPBiCGStab:  Solving for epsilon, Initial residual = 0.0132981, Final residual = 5.80729e-07, No Iterations 2
DILUPBiCGStab:  Solving for k, Initial residual = 0.00666994, Final residual = 9.35347e-08, No Iterations 2
ExecutionTime = 0.46 s  ClockTime = 1 s

Courant Number mean: 0.000134996 max: 0.00277419
Time = 0.037

DILUPBiCGStab:  Solving for T, Initial residual = 0.10376, Final residual = 3.19511e-07, No Iterations 3
DICPCG:  Solving for p_rgh, Initial residual = 0.00947439, Final residual = 8.93149e-05, No Iterations 20
time step continuity errors : sum local = 5.34489e-08, global = -2.93784e-20, cumulative = 8.484e-19
DICPCG:  Solving for p_rgh, Initial residual = 0.000162062, Final residual = 6.71216e-09, No Iterations 82
time step continuity errors : sum local = 4.0341e-12, global = -2.93704e-20, cumulative = 8.1903e-19
DILUPBiCGStab:  Solving for epsilon, Initial residual = 0.0131579, Final residual = 5.56476e-07, No Iterations 2
DILUPBiCGStab:  Solving for k, Initial residual = 0.00653171, Final residual = 8.82763e-08, No Iterations 2
ExecutionTime = 0.47 s  ClockTime = 1 s

Courant Number mean: 0.000141813 max: 0.00290913
Time = 0.038

DILUPBiCGStab:  Solving for T, Initial residual = 0.102006, Final residual = 2.93806e-07, No Iterations 3
DICPCG:  Solving for p_rgh, Initial residual = 0.00916548, Final residual = 8.86424e-05, No Iterations 20
time step continuity errors : sum local = 5.40258e-08, global = -4.26789e-20, cumulative = 7.76351e-19
DICPCG:  Solving for p_rgh, Initial residual = 0.000161568, Final residual = 6.44725e-09, No Iterations 82
time step continuity errors : sum local = 3.94931e-12, global = -4.26698e-20, cumulative = 7.33681e-19
DILUPBiCGStab:  Solving for epsilon, Initial residual = 0.013026, Final residual = 5.33323e-07, No Iterations 2
DILUPBiCGStab:  Solving for k, Initial residual = 0.00640008, Final residual = 8.34219e-08, No Iterations 2
ExecutionTime = 0.48 s  ClockTime = 1 s

Courant Number mean: 0.000148765 max: 0.00304923
Time = 0.039

DILUPBiCGStab:  Solving for T, Initial residual = 0.100337, Final residual = 2.70694e-07, No Iterations 3
DICPCG:  Solving for p_rgh, Initial residual = 0.00887264, Final residual = 8.81527e-05, No Iterations 20
time step continuity errors : sum local = 5.46793e-08, global = -2.93328e-20, cumulative = 7.04348e-19
DICPCG:  Solving for p_rgh, Initial residual = 0.00016123, Final residual = 9.72244e-09, No Iterations 81
time step continuity errors : sum local = 6.05357e-12, global = -2.92845e-20, cumulative = 6.75064e-19
DILUPBiCGStab:  Solving for epsilon, Initial residual = 0.0129021, Final residual = 5.11276e-07, No Iterations 2
DILUPBiCGStab:  Solving for k, Initial residual = 0.00627468, Final residual = 7.89392e-08, No Iterations 2
ExecutionTime = 0.49 s  ClockTime = 1 s

Courant Number mean: 0.000155852 max: 0.00319108
Time = 0.04

DILUPBiCGStab:  Solving for T, Initial residual = 0.0987469, Final residual = 2.49865e-07, No Iterations 3
DICPCG:  Solving for p_rgh, Initial residual = 0.00859484, Final residual = 7.2759e-05, No Iterations 21
time step continuity errors : sum local = 4.59838e-08, global = -4.00356e-20, cumulative = 6.35028e-19
DICPCG:  Solving for p_rgh, Initial residual = 0.000152449, Final residual = 9.15345e-09, No Iterations 81
time step continuity errors : sum local = 5.79568e-12, global = -4.00352e-20, cumulative = 5.94993e-19
DILUPBiCGStab:  Solving for epsilon, Initial residual = 0.0127855, Final residual = 4.90223e-07, No Iterations 2
DILUPBiCGStab:  Solving for k, Initial residual = 0.00615498, Final residual = 7.48179e-08, No Iterations 2
ExecutionTime = 0.5 s  ClockTime = 1 s

Courant Number mean: 0.000163073 max: 0.00333351
Time = 0.041

DILUPBiCGStab:  Solving for T, Initial residual = 0.09723, Final residual = 2.31058e-07, No Iterations 3
DICPCG:  Solving for p_rgh, Initial residual = 0.00832993, Final residual = 7.1504e-05, No Iterations 21
time step continuity errors : sum local = 4.59267e-08, global = 1.36021e-20, cumulative = 6.08595e-19
DICPCG:  Solving for p_rgh, Initial residual = 0.00015102, Final residual = 9.05539e-09, No Iterations 81
time step continuity errors : sum local = 5.82791e-12, global = 1.34793e-20, cumulative = 6.22074e-19
DILUPBiCGStab:  Solving for epsilon, Initial residual = 0.0126746, Final residual = 4.70046e-07, No Iterations 2
DILUPBiCGStab:  Solving for k, Initial residual = 0.00604067, Final residual = 7.1014e-08, No Iterations 2
ExecutionTime = 0.51 s  ClockTime = 1 s

Courant Number mean: 0.000170423 max: 0.00347731
Time = 0.042

DILUPBiCGStab:  Solving for T, Initial residual = 0.0957804, Final residual = 2.14041e-07, No Iterations 3
DICPCG:  Solving for p_rgh, Initial residual = 0.00807786, Final residual = 7.08655e-05, No Iterations 21
time step continuity errors : sum local = 4.62588e-08, global = -3.99552e-20, cumulative = 5.82119e-19
DICPCG:  Solving for p_rgh, Initial residual = 0.000150544, Final residual = 8.6906e-09, No Iterations 81
time step continuity errors : sum local = 5.68124e-12, global = -3.98771e-20, cumulative = 5.42242e-19
DILUPBiCGStab:  Solving for epsilon, Initial residual = 0.0125695, Final residual = 4.50688e-07, No Iterations 2
DILUPBiCGStab:  Solving for k, Initial residual = 0.00593137, Final residual = 6.74921e-08, No Iterations 2
ExecutionTime = 0.52 s  ClockTime = 1 s

Courant Number mean: 0.000177899 max: 0.00362171
Time = 0.043

DILUPBiCGStab:  Solving for T, Initial residual = 0.0943946, Final residual = 1.98626e-07, No Iterations 3
DICPCG:  Solving for p_rgh, Initial residual = 0.00783803, Final residual = 7.02837e-05, No Iterations 21
time step continuity errors : sum local = 4.65897e-08, global = -3.18029e-20, cumulative = 5.10439e-19
DICPCG:  Solving for p_rgh, Initial residual = 0.00015007, Final residual = 8.67832e-09, No Iterations 81
time step continuity errors : sum local = 5.76227e-12, global = -3.23007e-20, cumulative = 4.78138e-19
DILUPBiCGStab:  Solving for epsilon, Initial residual = 0.0124698, Final residual = 4.3214e-07, No Iterations 2
DILUPBiCGStab:  Solving for k, Initial residual = 0.00582685, Final residual = 6.42175e-08, No Iterations 2
ExecutionTime = 0.53 s  ClockTime = 1 s

Courant Number mean: 0.000185501 max: 0.00377079
Time = 0.044

DILUPBiCGStab:  Solving for T, Initial residual = 0.0930686, Final residual = 1.84621e-07, No Iterations 3
DICPCG:  Solving for p_rgh, Initial residual = 0.00760942, Final residual = 6.96657e-05, No Iterations 21
time step continuity errors : sum local = 4.6881e-08, global = -3.72328e-20, cumulative = 4.40906e-19
DICPCG:  Solving for p_rgh, Initial residual = 0.000149612, Final residual = 8.68787e-09, No Iterations 81
time step continuity errors : sum local = 5.85351e-12, global = -3.76147e-20, cumulative = 4.03291e-19
DILUPBiCGStab:  Solving for epsilon, Initial residual = 0.0123746, Final residual = 4.14319e-07, No Iterations 2
DILUPBiCGStab:  Solving for k, Initial residual = 0.0057267, Final residual = 6.11611e-08, No Iterations 2
ExecutionTime = 0.54 s  ClockTime = 1 s

Courant Number mean: 0.000193225 max: 0.00392169
Time = 0.045

DILUPBiCGStab:  Solving for T, Initial residual = 0.0917985, Final residual = 1.71864e-07, No Iterations 3
DICPCG:  Solving for p_rgh, Initial residual = 0.00739094, Final residual = 6.90654e-05, No Iterations 21
time step continuity errors : sum local = 4.7157e-08, global = -1.04959e-20, cumulative = 3.92795e-19
DICPCG:  Solving for p_rgh, Initial residual = 0.000149144, Final residual = 8.19655e-09, No Iterations 81
time step continuity errors : sum local = 5.60486e-12, global = -1.07294e-20, cumulative = 3.82066e-19
DILUPBiCGStab:  Solving for epsilon, Initial residual = 0.0122819, Final residual = 3.97156e-07, No Iterations 2
DILUPBiCGStab:  Solving for k, Initial residual = 0.0056307, Final residual = 5.83056e-08, No Iterations 2
ExecutionTime = 0.55 s  ClockTime = 1 s

Courant Number mean: 0.000201071 max: 0.0040733
Time = 0.046

DILUPBiCGStab:  Solving for T, Initial residual = 0.0905801, Final residual = 1.6022e-07, No Iterations 3
DICPCG:  Solving for p_rgh, Initial residual = 0.00718131, Final residual = 6.84594e-05, No Iterations 21
time step continuity errors : sum local = 4.74089e-08, global = 5.41865e-21, cumulative = 3.87484e-19
DICPCG:  Solving for p_rgh, Initial residual = 0.000148668, Final residual = 8.4257e-09, No Iterations 81
time step continuity errors : sum local = 5.83939e-12, global = 5.12768e-21, cumulative = 3.92612e-19
DILUPBiCGStab:  Solving for epsilon, Initial residual = 0.0121912, Final residual = 3.80589e-07, No Iterations 2
DILUPBiCGStab:  Solving for k, Initial residual = 0.00553858, Final residual = 9.84673e-07, No Iterations 2
ExecutionTime = 0.56 s  ClockTime = 1 s

Courant Number mean: 0.000209036 max: 0.00422552
Time = 0.047

DILUPBiCGStab:  Solving for T, Initial residual = 0.0894111, Final residual = 1.49577e-07, No Iterations 3
DICPCG:  Solving for p_rgh, Initial residual = 0.00697996, Final residual = 6.78594e-05, No Iterations 21
time step continuity errors : sum local = 4.76416e-08, global = 3.20227e-20, cumulative = 4.24635e-19
DICPCG:  Solving for p_rgh, Initial residual = 0.000148188, Final residual = 8.14351e-09, No Iterations 81
time step continuity errors : sum local = 5.72236e-12, global = 3.20982e-20, cumulative = 4.56733e-19
DILUPBiCGStab:  Solving for epsilon, Initial residual = 0.0121034, Final residual = 3.64613e-07, No Iterations 2
DILUPBiCGStab:  Solving for k, Initial residual = 0.0054501, Final residual = 9.46806e-07, No Iterations 2
ExecutionTime = 0.58 s  ClockTime = 1 s

Courant Number mean: 0.000217122 max: 0.00437829
Time = 0.048

DILUPBiCGStab:  Solving for T, Initial residual = 0.0882888, Final residual = 1.39828e-07, No Iterations 3
DICPCG:  Solving for p_rgh, Initial residual = 0.00678626, Final residual = 6.72561e-05, No Iterations 21
time step continuity errors : sum local = 4.78511e-08, global = -4.29541e-20, cumulative = 4.13779e-19
DICPCG:  Solving for p_rgh, Initial residual = 0.000147698, Final residual = 8.21848e-09, No Iterations 81
time step continuity errors : sum local = 5.84978e-12, global = -4.20605e-20, cumulative = 3.71718e-19
DILUPBiCGStab:  Solving for epsilon, Initial residual = 0.0120183, Final residual = 3.49217e-07, No Iterations 2
DILUPBiCGStab:  Solving for k, Initial residual = 0.00536463, Final residual = 9.10663e-07, No Iterations 2
ExecutionTime = 0.59 s  ClockTime = 1 s

Courant Number mean: 0.000225324 max: 0.00453153
Time = 0.049

DILUPBiCGStab:  Solving for T, Initial residual = 0.0872097, Final residual = 1.30882e-07, No Iterations 3
DICPCG:  Solving for p_rgh, Initial residual = 0.00659972, Final residual = 5.19445e-05, No Iterations 22
time step continuity errors : sum local = 3.74897e-08, global = -3.7656e-20, cumulative = 3.34062e-19
DICPCG:  Solving for p_rgh, Initial residual = 0.000138013, Final residual = 7.03413e-09, No Iterations 81
time step continuity errors : sum local = 5.07107e-12, global = -3.72171e-20, cumulative = 2.96845e-19
DILUPBiCGStab:  Solving for epsilon, Initial residual = 0.011936, Final residual = 3.34407e-07, No Iterations 2
DILUPBiCGStab:  Solving for k, Initial residual = 0.00528219, Final residual = 8.76176e-07, No Iterations 2
ExecutionTime = 0.6 s  ClockTime = 1 s

Courant Number mean: 0.000233639 max: 0.00468962
Time = 0.05

DILUPBiCGStab:  Solving for T, Initial residual = 0.0861709, Final residual = 1.22663e-07, No Iterations 3
DICPCG:  Solving for p_rgh, Initial residual = 0.00641955, Final residual = 5.14902e-05, No Iterations 22
time step continuity errors : sum local = 3.76336e-08, global = -4.26888e-20, cumulative = 2.54156e-19
DICPCG:  Solving for p_rgh, Initial residual = 0.000137682, Final residual = 6.92832e-09, No Iterations 81
time step continuity errors : sum local = 5.05745e-12, global = -4.23311e-20, cumulative = 2.11825e-19
DILUPBiCGStab:  Solving for epsilon, Initial residual = 0.0118566, Final residual = 3.20203e-07, No Iterations 2
DILUPBiCGStab:  Solving for k, Initial residual = 0.00520246, Final residual = 8.43269e-07, No Iterations 2
ExecutionTime = 0.62 s  ClockTime = 1 s

Courant Number mean: 0.000242065 max: 0.00484887
Time = 0.051

DILUPBiCGStab:  Solving for T, Initial residual = 0.0851596, Final residual = 1.15094e-07, No Iterations 3
DICPCG:  Solving for p_rgh, Initial residual = 0.00624578, Final residual = 5.09593e-05, No Iterations 22
time step continuity errors : sum local = 3.77021e-08, global = -2.97404e-20, cumulative = 1.82085e-19
DICPCG:  Solving for p_rgh, Initial residual = 0.00013725, Final residual = 9.83588e-09, No Iterations 80
time step continuity errors : sum local = 7.27765e-12, global = -2.84278e-20, cumulative = 1.53657e-19
DILUPBiCGStab:  Solving for epsilon, Initial residual = 0.0117782, Final residual = 3.06597e-07, No Iterations 2
DILUPBiCGStab:  Solving for k, Initial residual = 0.00512535, Final residual = 8.11836e-07, No Iterations 2
ExecutionTime = 0.63 s  ClockTime = 1 s

Courant Number mean: 0.000250601 max: 0.00500857
Time = 0.052

DILUPBiCGStab:  Solving for T, Initial residual = 0.0841778, Final residual = 1.08119e-07, No Iterations 3
DICPCG:  Solving for p_rgh, Initial residual = 0.00607801, Final residual = 5.04347e-05, No Iterations 22
time step continuity errors : sum local = 3.77622e-08, global = -5.07416e-20, cumulative = 1.02915e-19
DICPCG:  Solving for p_rgh, Initial residual = 0.000136816, Final residual = 9.7682e-09, No Iterations 80
time step continuity errors : sum local = 7.31334e-12, global = -5.02055e-20, cumulative = 5.27098e-20
DILUPBiCGStab:  Solving for epsilon, Initial residual = 0.0117015, Final residual = 2.93502e-07, No Iterations 2
DILUPBiCGStab:  Solving for k, Initial residual = 0.00505101, Final residual = 7.81826e-07, No Iterations 2
ExecutionTime = 0.65 s  ClockTime = 1 s

Courant Number mean: 0.000259268 max: 0.00516865
Time = 0.053

DILUPBiCGStab:  Solving for T, Initial residual = 0.0832283, Final residual = 1.01682e-07, No Iterations 3
DICPCG:  Solving for p_rgh, Initial residual = 0.00591646, Final residual = 4.99251e-05, No Iterations 22
time step continuity errors : sum local = 3.78156e-08, global = 3.24746e-20, cumulative = 8.51844e-20
DICPCG:  Solving for p_rgh, Initial residual = 0.000136374, Final residual = 9.10857e-09, No Iterations 80
time step continuity errors : sum local = 6.89678e-12, global = 3.22641e-20, cumulative = 1.17449e-19
DILUPBiCGStab:  Solving for epsilon, Initial residual = 0.0116276, Final residual = 2.80908e-07, No Iterations 2
DILUPBiCGStab:  Solving for k, Initial residual = 0.00497933, Final residual = 7.5317e-07, No Iterations 2
ExecutionTime = 0.66 s  ClockTime = 1 s

Courant Number mean: 0.000268068 max: 0.00532908
Time = 0.054

DILUPBiCGStab:  Solving for T, Initial residual = 0.0823117, Final residual = 9.57384e-08, No Iterations 3
DICPCG:  Solving for p_rgh, Initial residual = 0.0057601, Final residual = 4.94276e-05, No Iterations 22
time step continuity errors : sum local = 3.7863e-08, global = -1.6004e-20, cumulative = 1.01445e-19
DICPCG:  Solving for p_rgh, Initial residual = 0.000135939, Final residual = 8.83998e-09, No Iterations 80
time step continuity errors : sum local = 6.76551e-12, global = -1.56744e-20, cumulative = 8.57701e-20
DILUPBiCGStab:  Solving for epsilon, Initial residual = 0.0115556, Final residual = 2.68791e-07, No Iterations 2
DILUPBiCGStab:  Solving for k, Initial residual = 0.00491022, Final residual = 7.25762e-07, No Iterations 2
ExecutionTime = 0.67 s  ClockTime = 1 s

Courant Number mean: 0.000276988 max: 0.00548981
Time = 0.055

DILUPBiCGStab:  Solving for T, Initial residual = 0.0814273, Final residual = 9.02439e-08, No Iterations 3
DICPCG:  Solving for p_rgh, Initial residual = 0.00560852, Final residual = 4.89386e-05, No Iterations 22
time step continuity errors : sum local = 3.7901e-08, global = 3.77826e-20, cumulative = 1.23553e-19
DICPCG:  Solving for p_rgh, Initial residual = 0.0001355, Final residual = 9.10668e-09, No Iterations 80
time step continuity errors : sum local = 7.04869e-12, global = 3.82781e-20, cumulative = 1.61831e-19
DILUPBiCGStab:  Solving for epsilon, Initial residual = 0.0114868, Final residual = 2.57157e-07, No Iterations 2
DILUPBiCGStab:  Solving for k, Initial residual = 0.00484355, Final residual = 6.99578e-07, No Iterations 2
ExecutionTime = 0.68 s  ClockTime = 1 s

Courant Number mean: 0.000286026 max: 0.00565079
Time = 0.056

DILUPBiCGStab:  Solving for T, Initial residual = 0.0805736, Final residual = 8.51544e-08, No Iterations 3
DICPCG:  Solving for p_rgh, Initial residual = 0.00546164, Final residual = 4.84564e-05, No Iterations 22
time step continuity errors : sum local = 3.79295e-08, global = -1.95568e-22, cumulative = 1.61635e-19
DICPCG:  Solving for p_rgh, Initial residual = 0.000135061, Final residual = 9.06203e-09, No Iterations 80
time step continuity errors : sum local = 7.0884e-12, global = 7.63657e-23, cumulative = 1.61712e-19
DILUPBiCGStab:  Solving for epsilon, Initial residual = 0.0114213, Final residual = 2.45959e-07, No Iterations 2
DILUPBiCGStab:  Solving for k, Initial residual = 0.00477922, Final residual = 6.74584e-07, No Iterations 2
ExecutionTime = 0.69 s  ClockTime = 1 s

Courant Number mean: 0.000295177 max: 0.00581581
Time = 0.057

DILUPBiCGStab:  Solving for T, Initial residual = 0.0797489, Final residual = 8.04342e-08, No Iterations 3
DICPCG:  Solving for p_rgh, Initial residual = 0.0053192, Final residual = 4.79807e-05, No Iterations 22
time step continuity errors : sum local = 3.79484e-08, global = 1.09095e-20, cumulative = 1.72621e-19
DICPCG:  Solving for p_rgh, Initial residual = 0.000134622, Final residual = 8.97984e-09, No Iterations 80
time step continuity errors : sum local = 7.09678e-12, global = 1.04952e-20, cumulative = 1.83116e-19
DILUPBiCGStab:  Solving for epsilon, Initial residual = 0.0113583, Final residual = 2.35196e-07, No Iterations 2
DILUPBiCGStab:  Solving for k, Initial residual = 0.00471718, Final residual = 6.50687e-07, No Iterations 2
ExecutionTime = 0.7 s  ClockTime = 1 s

Courant Number mean: 0.000304439 max: 0.00598219
Time = 0.058

DILUPBiCGStab:  Solving for T, Initial residual = 0.0789515, Final residual = 7.60497e-08, No Iterations 3
DICPCG:  Solving for p_rgh, Initial residual = 0.00518103, Final residual = 4.75096e-05, No Iterations 22
time step continuity errors : sum local = 3.7957e-08, global = -3.13848e-20, cumulative = 1.51732e-19
DICPCG:  Solving for p_rgh, Initial residual = 0.000134186, Final residual = 8.82088e-09, No Iterations 80
time step continuity errors : sum local = 7.04104e-12, global = -3.18997e-20, cumulative = 1.19832e-19
DILUPBiCGStab:  Solving for epsilon, Initial residual = 0.0112968, Final residual = 2.24828e-07, No Iterations 2
DILUPBiCGStab:  Solving for k, Initial residual = 0.00465725, Final residual = 6.27838e-07, No Iterations 2
ExecutionTime = 0.71 s  ClockTime = 1 s

Courant Number mean: 0.00031381 max: 0.0061488
Time = 0.059

DILUPBiCGStab:  Solving for T, Initial residual = 0.07818, Final residual = 7.1971e-08, No Iterations 3
DICPCG:  Solving for p_rgh, Initial residual = 0.00504662, Final residual = 4.70433e-05, No Iterations 22
time step continuity errors : sum local = 3.79555e-08, global = 5.65253e-21, cumulative = 1.25484e-19
DICPCG:  Solving for p_rgh, Initial residual = 0.00013375, Final residual = 8.66451e-09, No Iterations 80
time step continuity errors : sum local = 6.9832e-12, global = 5.82525e-21, cumulative = 1.3131e-19
DILUPBiCGStab:  Solving for epsilon, Initial residual = 0.0112363, Final residual = 2.14844e-07, No Iterations 2
DILUPBiCGStab:  Solving for k, Initial residual = 0.0045994, Final residual = 6.05959e-07, No Iterations 2
ExecutionTime = 0.72 s  ClockTime = 1 s

Courant Number mean: 0.000323295 max: 0.00631559
Time = 0.06

DILUPBiCGStab:  Solving for T, Initial residual = 0.0774333, Final residual = 6.81721e-08, No Iterations 3
DICPCG:  Solving for p_rgh, Initial residual = 0.00491578, Final residual = 4.65825e-05, No Iterations 22
time step continuity errors : sum local = 3.79445e-08, global = -8.78698e-21, cumulative = 1.22523e-19
DICPCG:  Solving for p_rgh, Initial residual = 0.000133315, Final residual = 8.50851e-09, No Iterations 80
time step continuity errors : sum local = 6.92231e-12, global = -8.51748e-21, cumulative = 1.14005e-19
DILUPBiCGStab:  Solving for epsilon, Initial residual = 0.0111759, Final residual = 2.05221e-07, No Iterations 2
DILUPBiCGStab:  Solving for k, Initial residual = 0.00454355, Final residual = 5.85075e-07, No Iterations 2
ExecutionTime = 0.73 s  ClockTime = 1 s

Courant Number mean: 0.000332889 max: 0.00648253
Time = 0.061

DILUPBiCGStab:  Solving for T, Initial residual = 0.0767106, Final residual = 6.46305e-08, No Iterations 3
DICPCG:  Solving for p_rgh, Initial residual = 0.00478831, Final residual = 4.61265e-05, No Iterations 22
time step continuity errors : sum local = 3.79237e-08, global = 8.20231e-22, cumulative = 1.14825e-19
DICPCG:  Solving for p_rgh, Initial residual = 0.000132883, Final residual = 8.35398e-09, No Iterations 80
time step continuity errors : sum local = 6.85895e-12, global = 1.19974e-21, cumulative = 1.16025e-19
DILUPBiCGStab:  Solving for epsilon, Initial residual = 0.0111161, Final residual = 1.96081e-07, No Iterations 2
DILUPBiCGStab:  Solving for k, Initial residual = 0.00448962, Final residual = 5.65073e-07, No Iterations 2
ExecutionTime = 0.74 s  ClockTime = 1 s

Courant Number mean: 0.000342589 max: 0.00664956
Time = 0.062

DILUPBiCGStab:  Solving for T, Initial residual = 0.0760108, Final residual = 6.13256e-08, No Iterations 3
DICPCG:  Solving for p_rgh, Initial residual = 0.00466408, Final residual = 4.56774e-05, No Iterations 22
time step continuity errors : sum local = 3.78952e-08, global = -1.07607e-20, cumulative = 1.05265e-19
DICPCG:  Solving for p_rgh, Initial residual = 0.000132455, Final residual = 9.85869e-09, No Iterations 79
time step continuity errors : sum local = 8.15134e-12, global = -1.1231e-20, cumulative = 9.40335e-20
DILUPBiCGStab:  Solving for epsilon, Initial residual = 0.0110567, Final residual = 1.87307e-07, No Iterations 2
DILUPBiCGStab:  Solving for k, Initial residual = 0.00443754, Final residual = 5.45906e-07, No Iterations 2
ExecutionTime = 0.76 s  ClockTime = 1 s

Courant Number mean: 0.000352393 max: 0.00681666
Time = 0.063

DILUPBiCGStab:  Solving for T, Initial residual = 0.075333, Final residual = 5.82383e-08, No Iterations 3
DICPCG:  Solving for p_rgh, Initial residual = 0.00454307, Final residual = 4.52345e-05, No Iterations 22
time step continuity errors : sum local = 3.7859e-08, global = -4.20601e-20, cumulative = 5.19734e-20
DICPCG:  Solving for p_rgh, Initial residual = 0.000132028, Final residual = 8.06281e-09, No Iterations 80
time step continuity errors : sum local = 6.73716e-12, global = -4.22118e-20, cumulative = 9.76156e-21
DILUPBiCGStab:  Solving for epsilon, Initial residual = 0.0109977, Final residual = 1.78849e-07, No Iterations 2
DILUPBiCGStab:  Solving for k, Initial residual = 0.0043872, Final residual = 5.27545e-07, No Iterations 2
ExecutionTime = 0.77 s  ClockTime = 1 s

Courant Number mean: 0.000362298 max: 0.00698379
Time = 0.064

DILUPBiCGStab:  Solving for T, Initial residual = 0.0746759, Final residual = 5.53511e-08, No Iterations 3
DICPCG:  Solving for p_rgh, Initial residual = 0.00442494, Final residual = 3.6772e-05, No Iterations 23
time step continuity errors : sum local = 3.11114e-08, global = -3.86923e-20, cumulative = -2.89308e-20
DICPCG:  Solving for p_rgh, Initial residual = 0.000123733, Final residual = 8.63215e-09, No Iterations 79
time step continuity errors : sum local = 7.26669e-12, global = -3.94872e-20, cumulative = -6.8418e-20
DILUPBiCGStab:  Solving for epsilon, Initial residual = 0.0109398, Final residual = 1.70713e-07, No Iterations 2
DILUPBiCGStab:  Solving for k, Initial residual = 0.00433853, Final residual = 5.09974e-07, No Iterations 2
ExecutionTime = 0.78 s  ClockTime = 1 s

Courant Number mean: 0.0003723 max: 0.00715147
Time = 0.065

DILUPBiCGStab:  Solving for T, Initial residual = 0.0740381, Final residual = 5.26482e-08, No Iterations 3
DICPCG:  Solving for p_rgh, Initial residual = 0.00430954, Final residual = 3.67104e-05, No Iterations 23
time step continuity errors : sum local = 3.13094e-08, global = 6.58904e-20, cumulative = -2.52759e-21
DICPCG:  Solving for p_rgh, Initial residual = 0.000123714, Final residual = 8.43417e-09, No Iterations 79
time step continuity errors : sum local = 7.15884e-12, global = 6.64031e-20, cumulative = 6.38755e-20
DILUPBiCGStab:  Solving for epsilon, Initial residual = 0.0108829, Final residual = 1.62867e-07, No Iterations 2
DILUPBiCGStab:  Solving for k, Initial residual = 0.00429146, Final residual = 4.93124e-07, No Iterations 2
ExecutionTime = 0.79 s  ClockTime = 1 s

Courant Number mean: 0.000382399 max: 0.00732341
Time = 0.066

DILUPBiCGStab:  Solving for T, Initial residual = 0.0734193, Final residual = 5.01149e-08, No Iterations 3
DICPCG:  Solving for p_rgh, Initial residual = 0.00419689, Final residual = 3.63404e-05, No Iterations 23
time step continuity errors : sum local = 3.12492e-08, global = -5.79305e-20, cumulative = 5.94502e-21
DICPCG:  Solving for p_rgh, Initial residual = 0.000123388, Final residual = 8.29702e-09, No Iterations 79
time step continuity errors : sum local = 7.09791e-12, global = -5.92214e-20, cumulative = -5.32764e-20
DILUPBiCGStab:  Solving for epsilon, Initial residual = 0.0108271, Final residual = 1.55308e-07, No Iterations 2
DILUPBiCGStab:  Solving for k, Initial residual = 0.00424594, Final residual = 4.7698e-07, No Iterations 2
ExecutionTime = 0.8 s  ClockTime = 1 s

Courant Number mean: 0.000392598 max: 0.0074953
Time = 0.067

DILUPBiCGStab:  Solving for T, Initial residual = 0.0728189, Final residual = 9.67022e-07, No Iterations 2
DICPCG:  Solving for p_rgh, Initial residual = 0.0040868, Final residual = 3.59755e-05, No Iterations 23
time step continuity errors : sum local = 3.11773e-08, global = 2.04341e-20, cumulative = -3.28424e-20
DICPCG:  Solving for p_rgh, Initial residual = 0.000123045, Final residual = 8.13748e-09, No Iterations 79
time step continuity errors : sum local = 7.01576e-12, global = 1.9913e-20, cumulative = -1.29293e-20
DILUPBiCGStab:  Solving for epsilon, Initial residual = 0.0107725, Final residual = 1.48014e-07, No Iterations 2
DILUPBiCGStab:  Solving for k, Initial residual = 0.00420189, Final residual = 4.61534e-07, No Iterations 2
ExecutionTime = 0.81 s  ClockTime = 1 s

Courant Number mean: 0.000402887 max: 0.0076672
Time = 0.068

DILUPBiCGStab:  Solving for T, Initial residual = 0.0722364, Final residual = 9.28434e-07, No Iterations 2
DICPCG:  Solving for p_rgh, Initial residual = 0.00397921, Final residual = 3.56088e-05, No Iterations 23
time step continuity errors : sum local = 3.10972e-08, global = -5.38914e-20, cumulative = -6.68208e-20
DICPCG:  Solving for p_rgh, Initial residual = 0.000122716, Final residual = 7.99623e-09, No Iterations 79
time step continuity errors : sum local = 6.94609e-12, global = -5.29773e-20, cumulative = -1.19798e-19
DILUPBiCGStab:  Solving for epsilon, Initial residual = 0.0107189, Final residual = 1.40978e-07, No Iterations 2
DILUPBiCGStab:  Solving for k, Initial residual = 0.00415924, Final residual = 4.46802e-07, No Iterations 2
ExecutionTime = 0.82 s  ClockTime = 1 s

Courant Number mean: 0.000413271 max: 0.00783901
Time = 0.069

DILUPBiCGStab:  Solving for T, Initial residual = 0.0716709, Final residual = 8.91958e-07, No Iterations 2
DICPCG:  Solving for p_rgh, Initial residual = 0.00387414, Final residual = 3.52515e-05, No Iterations 23
time step continuity errors : sum local = 3.10138e-08, global = 2.51854e-20, cumulative = -9.46127e-20
DICPCG:  Solving for p_rgh, Initial residual = 0.00012239, Final residual = 7.89413e-09, No Iterations 79
time step continuity errors : sum local = 6.90893e-12, global = 2.53169e-20, cumulative = -6.92958e-20
DILUPBiCGStab:  Solving for epsilon, Initial residual = 0.0106661, Final residual = 1.3419e-07, No Iterations 2
DILUPBiCGStab:  Solving for k, Initial residual = 0.00411794, Final residual = 4.32717e-07, No Iterations 2
ExecutionTime = 0.83 s  ClockTime = 1 s

Courant Number mean: 0.000423748 max: 0.00801074
Time = 0.07

DILUPBiCGStab:  Solving for T, Initial residual = 0.0711216, Final residual = 8.57448e-07, No Iterations 2
DICPCG:  Solving for p_rgh, Initial residual = 0.00377128, Final residual = 3.48988e-05, No Iterations 23
time step continuity errors : sum local = 3.09261e-08, global = -6.96772e-20, cumulative = -1.38973e-19
DICPCG:  Solving for p_rgh, Initial residual = 0.000122069, Final residual = 7.75561e-09, No Iterations 79
time step continuity errors : sum local = 6.83634e-12, global = -6.93906e-20, cumulative = -2.08364e-19
DILUPBiCGStab:  Solving for epsilon, Initial residual = 0.0106145, Final residual = 1.2763e-07, No Iterations 2
DILUPBiCGStab:  Solving for k, Initial residual = 0.00407791, Final residual = 4.19228e-07, No Iterations 2
ExecutionTime = 0.84 s  ClockTime = 1 s

Courant Number mean: 0.000434313 max: 0.00818235
Time = 0.071

DILUPBiCGStab:  Solving for T, Initial residual = 0.0705877, Final residual = 8.24769e-07, No Iterations 2
DICPCG:  Solving for p_rgh, Initial residual = 0.00367045, Final residual = 3.45514e-05, No Iterations 23
time step continuity errors : sum local = 3.08337e-08, global = 3.61809e-20, cumulative = -1.72183e-19
DICPCG:  Solving for p_rgh, Initial residual = 0.000121751, Final residual = 7.61327e-09, No Iterations 79
time step continuity errors : sum local = 6.75781e-12, global = 3.56156e-20, cumulative = -1.36567e-19
DILUPBiCGStab:  Solving for epsilon, Initial residual = 0.010563, Final residual = 1.2128e-07, No Iterations 2
DILUPBiCGStab:  Solving for k, Initial residual = 0.00403913, Final residual = 4.0632e-07, No Iterations 2
ExecutionTime = 0.85 s  ClockTime = 1 s

Courant Number mean: 0.000444964 max: 0.00835382
Time = 0.072

DILUPBiCGStab:  Solving for T, Initial residual = 0.0700659, Final residual = 7.93768e-07, No Iterations 2
DICPCG:  Solving for p_rgh, Initial residual = 0.00357163, Final residual = 3.42086e-05, No Iterations 23
time step continuity errors : sum local = 3.07372e-08, global = -6.17776e-20, cumulative = -1.98345e-19
DICPCG:  Solving for p_rgh, Initial residual = 0.000121439, Final residual = 7.46946e-09, No Iterations 79
time step continuity errors : sum local = 6.67522e-12, global = -6.2622e-20, cumulative = -2.60967e-19
DILUPBiCGStab:  Solving for epsilon, Initial residual = 0.0105112, Final residual = 1.15136e-07, No Iterations 2
DILUPBiCGStab:  Solving for k, Initial residual = 0.00400152, Final residual = 3.9395e-07, No Iterations 2
ExecutionTime = 0.86 s  ClockTime = 1 s

Courant Number mean: 0.000455707 max: 0.00852512
Time = 0.073

DILUPBiCGStab:  Solving for T, Initial residual = 0.0695507, Final residual = 7.64285e-07, No Iterations 2
DICPCG:  Solving for p_rgh, Initial residual = 0.00347495, Final residual = 3.38711e-05, No Iterations 23
time step continuity errors : sum local = 3.06364e-08, global = -1.064e-19, cumulative = -3.67367e-19
DICPCG:  Solving for p_rgh, Initial residual = 0.00012113, Final residual = 8.02256e-09, No Iterations 61
time step continuity errors : sum local = 9.74407e-12, global = -1.06036e-19, cumulative = -4.73403e-19
DILUPBiCGStab:  Solving for epsilon, Initial residual = 0.0104593, Final residual = 1.09455e-07, No Iterations 2
DILUPBiCGStab:  Solving for k, Initial residual = 0.00396505, Final residual = 3.82101e-07, No Iterations 2
ExecutionTime = 0.87 s  ClockTime = 1 s

Courant Number mean: 0.000466537 max: 0.00869614
Time = 0.074

DILUPBiCGStab:  Solving for T, Initial residual = 0.0690452, Final residual = 7.36265e-07, No Iterations 2
DICPCG:  Solving for p_rgh, Initial residual = 0.00338014, Final residual = 3.35363e-05, No Iterations 23
time step continuity errors : sum local = 3.05339e-08, global = -1.49582e-20, cumulative = -4.88361e-19
DICPCG:  Solving for p_rgh, Initial residual = 0.000120833, Final residual = 9.84257e-09, No Iterations 78
time step continuity errors : sum local = 8.90326e-12, global = -1.49746e-20, cumulative = -5.03336e-19
DILUPBiCGStab:  Solving for epsilon, Initial residual = 0.0104076, Final residual = 1.04224e-07, No Iterations 2
DILUPBiCGStab:  Solving for k, Initial residual = 0.00392969, Final residual = 3.70738e-07, No Iterations 2
ExecutionTime = 0.88 s  ClockTime = 1 s

Courant Number mean: 0.000477448 max: 0.0088671
Time = 0.075

DILUPBiCGStab:  Solving for T, Initial residual = 0.0685509, Final residual = 7.09634e-07, No Iterations 2
DICPCG:  Solving for p_rgh, Initial residual = 0.0032873, Final residual = 2.60453e-05, No Iterations 24
time step continuity errors : sum local = 2.39137e-08, global = -5.30588e-20, cumulative = -5.56395e-19
DICPCG:  Solving for p_rgh, Initial residual = 0.000116398, Final residual = 8.43524e-09, No Iterations 78
time step continuity errors : sum local = 7.67215e-12, global = -5.40129e-20, cumulative = -6.10408e-19
DILUPBiCGStab:  Solving for epsilon, Initial residual = 0.0103558, Final residual = 9.92516e-08, No Iterations 2
DILUPBiCGStab:  Solving for k, Initial residual = 0.00389538, Final residual = 3.59807e-07, No Iterations 2
ExecutionTime = 0.9 s  ClockTime = 1 s

Courant Number mean: 0.00048844 max: 0.00903758
Time = 0.076

DILUPBiCGStab:  Solving for T, Initial residual = 0.0680694, Final residual = 6.84318e-07, No Iterations 2
DICPCG:  Solving for p_rgh, Initial residual = 0.00319598, Final residual = 2.61185e-05, No Iterations 24
time step continuity errors : sum local = 2.41317e-08, global = 1.80614e-20, cumulative = -5.92346e-19
DICPCG:  Solving for p_rgh, Initial residual = 0.000116663, Final residual = 8.01035e-09, No Iterations 61
time step continuity errors : sum local = 9.96456e-12, global = 2.1456e-20, cumulative = -5.7089e-19
DILUPBiCGStab:  Solving for epsilon, Initial residual = 0.0103031, Final residual = 9.4653e-08, No Iterations 2
DILUPBiCGStab:  Solving for k, Initial residual = 0.00386209, Final residual = 3.49284e-07, No Iterations 2
ExecutionTime = 0.91 s  ClockTime = 1 s

Courant Number mean: 0.00049951 max: 0.00921125
Time = 0.077

DILUPBiCGStab:  Solving for T, Initial residual = 0.0676006, Final residual = 6.60241e-07, No Iterations 2
DICPCG:  Solving for p_rgh, Initial residual = 0.00310677, Final residual = 2.58655e-05, No Iterations 24
time step continuity errors : sum local = 2.40391e-08, global = -1.73158e-20, cumulative = -5.88206e-19
DICPCG:  Solving for p_rgh, Initial residual = 0.000116487, Final residual = 9.84559e-09, No Iterations 58
time step continuity errors : sum local = 9.59628e-12, global = -1.45632e-20, cumulative = -6.02769e-19
DILUPBiCGStab:  Solving for epsilon, Initial residual = 0.01025, Final residual = 9.047e-08, No Iterations 2
DILUPBiCGStab:  Solving for k, Initial residual = 0.00382979, Final residual = 3.39155e-07, No Iterations 2
ExecutionTime = 0.92 s  ClockTime = 1 s

Courant Number mean: 0.000510664 max: 0.00938569
Time = 0.078

DILUPBiCGStab:  Solving for T, Initial residual = 0.0671442, Final residual = 6.37328e-07, No Iterations 2
DICPCG:  Solving for p_rgh, Initial residual = 0.00301916, Final residual = 2.56262e-05, No Iterations 24
time step continuity errors : sum local = 2.39469e-08, global = 5.9462e-21, cumulative = -5.96823e-19
DICPCG:  Solving for p_rgh, Initial residual = 0.000116314, Final residual = 8.16014e-09, No Iterations 78
time step continuity errors : sum local = 7.5511e-12, global = 5.20136e-21, cumulative = -5.91622e-19
DILUPBiCGStab:  Solving for epsilon, Initial residual = 0.0101969, Final residual = 8.65047e-08, No Iterations 2
DILUPBiCGStab:  Solving for k, Initial residual = 0.00379843, Final residual = 3.29403e-07, No Iterations 2
ExecutionTime = 0.93 s  ClockTime = 1 s

Courant Number mean: 0.000521897 max: 0.00955981
Time = 0.079

DILUPBiCGStab:  Solving for T, Initial residual = 0.0666998, Final residual = 6.15542e-07, No Iterations 2
DICPCG:  Solving for p_rgh, Initial residual = 0.0029331, Final residual = 2.54062e-05, No Iterations 24
time step continuity errors : sum local = 2.38775e-08, global = -5.29755e-21, cumulative = -5.96919e-19
DICPCG:  Solving for p_rgh, Initial residual = 0.000116156, Final residual = 8.02981e-09, No Iterations 78
time step continuity errors : sum local = 7.47106e-12, global = -4.92439e-21, cumulative = -6.01843e-19
DILUPBiCGStab:  Solving for epsilon, Initial residual = 0.0101439, Final residual = 8.27119e-08, No Iterations 2
DILUPBiCGStab:  Solving for k, Initial residual = 0.00376799, Final residual = 3.20015e-07, No Iterations 2
ExecutionTime = 0.94 s  ClockTime = 1 s

Courant Number mean: 0.000533211 max: 0.00973363
Time = 0.08

DILUPBiCGStab:  Solving for T, Initial residual = 0.0662672, Final residual = 5.94829e-07, No Iterations 2
DICPCG:  Solving for p_rgh, Initial residual = 0.00284858, Final residual = 2.51666e-05, No Iterations 24
time step continuity errors : sum local = 2.37768e-08, global = 5.05099e-21, cumulative = -5.96792e-19
DICPCG:  Solving for p_rgh, Initial residual = 0.000115985, Final residual = 7.86396e-09, No Iterations 78
time step continuity errors : sum local = 7.35515e-12, global = 6.9809e-21, cumulative = -5.89812e-19
DILUPBiCGStab:  Solving for epsilon, Initial residual = 0.0100913, Final residual = 7.9096e-08, No Iterations 2
DILUPBiCGStab:  Solving for k, Initial residual = 0.00373841, Final residual = 3.10984e-07, No Iterations 2
ExecutionTime = 0.95 s  ClockTime = 1 s

Courant Number mean: 0.000544602 max: 0.00990718
Time = 0.081

DILUPBiCGStab:  Solving for T, Initial residual = 0.065846, Final residual = 5.75083e-07, No Iterations 2
DICPCG:  Solving for p_rgh, Initial residual = 0.00276562, Final residual = 2.4947e-05, No Iterations 24
time step continuity errors : sum local = 2.36932e-08, global = -8.39891e-20, cumulative = -6.73801e-19
DICPCG:  Solving for p_rgh, Initial residual = 0.000115828, Final residual = 7.76611e-09, No Iterations 78
time step continuity errors : sum local = 7.30021e-12, global = -8.46421e-20, cumulative = -7.58443e-19
DILUPBiCGStab:  Solving for epsilon, Initial residual = 0.010039, Final residual = 7.56514e-08, No Iterations 2
DILUPBiCGStab:  Solving for k, Initial residual = 0.00370966, Final residual = 3.02288e-07, No Iterations 2
ExecutionTime = 0.96 s  ClockTime = 1 s

Courant Number mean: 0.000556066 max: 0.0100804
Time = 0.082

DILUPBiCGStab:  Solving for T, Initial residual = 0.0654356, Final residual = 5.56255e-07, No Iterations 2
DICPCG:  Solving for p_rgh, Initial residual = 0.00268431, Final residual = 2.47211e-05, No Iterations 24
time step continuity errors : sum local = 2.35961e-08, global = 3.77853e-20, cumulative = -7.20658e-19
DICPCG:  Solving for p_rgh, Initial residual = 0.000115667, Final residual = 7.59035e-09, No Iterations 78
time step continuity errors : sum local = 7.17061e-12, global = 3.71037e-20, cumulative = -6.83554e-19
DILUPBiCGStab:  Solving for epsilon, Initial residual = 0.00998742, Final residual = 7.23687e-08, No Iterations 2
DILUPBiCGStab:  Solving for k, Initial residual = 0.00368171, Final residual = 2.93902e-07, No Iterations 2
ExecutionTime = 0.97 s  ClockTime = 1 s

Courant Number mean: 0.000567602 max: 0.0102533
Time = 0.083

DILUPBiCGStab:  Solving for T, Initial residual = 0.0650356, Final residual = 5.38286e-07, No Iterations 2
DICPCG:  Solving for p_rgh, Initial residual = 0.0026045, Final residual = 2.45034e-05, No Iterations 24
time step continuity errors : sum local = 2.35027e-08, global = -5.19501e-20, cumulative = -7.35504e-19
DICPCG:  Solving for p_rgh, Initial residual = 0.000115514, Final residual = 7.50897e-09, No Iterations 78
time step continuity errors : sum local = 7.1274e-12, global = -5.06402e-20, cumulative = -7.86144e-19
DILUPBiCGStab:  Solving for epsilon, Initial residual = 0.00993659, Final residual = 6.92423e-08, No Iterations 2
DILUPBiCGStab:  Solving for k, Initial residual = 0.00365454, Final residual = 2.85813e-07, No Iterations 2
ExecutionTime = 0.98 s  ClockTime = 1 s

Courant Number mean: 0.000579209 max: 0.0104259
Time = 0.084

DILUPBiCGStab:  Solving for T, Initial residual = 0.0646456, Final residual = 5.21125e-07, No Iterations 2
DICPCG:  Solving for p_rgh, Initial residual = 0.00252609, Final residual = 2.4287e-05, No Iterations 24
time step continuity errors : sum local = 2.34045e-08, global = 3.60314e-20, cumulative = -7.50113e-19
DICPCG:  Solving for p_rgh, Initial residual = 0.000115363, Final residual = 7.37197e-09, No Iterations 78
time step continuity errors : sum local = 7.02975e-12, global = 3.41796e-20, cumulative = -7.15933e-19
DILUPBiCGStab:  Solving for epsilon, Initial residual = 0.00988577, Final residual = 6.63865e-08, No Iterations 2
DILUPBiCGStab:  Solving for k, Initial residual = 0.00362812, Final residual = 2.78029e-07, No Iterations 2
ExecutionTime = 0.99 s  ClockTime = 1 s

Courant Number mean: 0.00059089 max: 0.0105981
Time = 0.085

DILUPBiCGStab:  Solving for T, Initial residual = 0.0642652, Final residual = 5.04721e-07, No Iterations 2
DICPCG:  Solving for p_rgh, Initial residual = 0.002449, Final residual = 2.40756e-05, No Iterations 24
time step continuity errors : sum local = 2.33065e-08, global = -1.63217e-22, cumulative = -7.16096e-19
DICPCG:  Solving for p_rgh, Initial residual = 0.000115215, Final residual = 7.22346e-09, No Iterations 78
time step continuity errors : sum local = 6.91894e-12, global = -2.77542e-22, cumulative = -7.16374e-19
DILUPBiCGStab:  Solving for epsilon, Initial residual = 0.00983518, Final residual = 6.37856e-08, No Iterations 2
DILUPBiCGStab:  Solving for k, Initial residual = 0.00360244, Final residual = 2.70542e-07, No Iterations 2
ExecutionTime = 1 s  ClockTime = 1 s

Courant Number mean: 0.000602639 max: 0.0107699
Time = 0.086

DILUPBiCGStab:  Solving for T, Initial residual = 0.0638944, Final residual = 4.8904e-07, No Iterations 2
DICPCG:  Solving for p_rgh, Initial residual = 0.0023732, Final residual = 2.01356e-05, No Iterations 25
time step continuity errors : sum local = 1.96203e-08, global = -6.97774e-20, cumulative = -7.86151e-19
DICPCG:  Solving for p_rgh, Initial residual = 0.000113664, Final residual = 6.22109e-09, No Iterations 78
time step continuity errors : sum local = 5.98651e-12, global = -6.97638e-20, cumulative = -8.55915e-19
DILUPBiCGStab:  Solving for epsilon, Initial residual = 0.00978431, Final residual = 6.12957e-08, No Iterations 2
DILUPBiCGStab:  Solving for k, Initial residual = 0.00357745, Final residual = 2.63328e-07, No Iterations 2
ExecutionTime = 1.02 s  ClockTime = 1 s

Courant Number mean: 0.000614451 max: 0.0109419
Time = 0.087

DILUPBiCGStab:  Solving for T, Initial residual = 0.0635329, Final residual = 4.74042e-07, No Iterations 2
DICPCG:  Solving for p_rgh, Initial residual = 0.00229837, Final residual = 1.95904e-05, No Iterations 25
time step continuity errors : sum local = 1.91764e-08, global = -1.05634e-20, cumulative = -8.66478e-19
DICPCG:  Solving for p_rgh, Initial residual = 0.000113366, Final residual = 6.86726e-09, No Iterations 78
time step continuity errors : sum local = 6.63333e-12, global = -1.25838e-20, cumulative = -8.79062e-19
DILUPBiCGStab:  Solving for epsilon, Initial residual = 0.00973251, Final residual = 5.89311e-08, No Iterations 2
DILUPBiCGStab:  Solving for k, Initial residual = 0.00355315, Final residual = 2.56369e-07, No Iterations 2
ExecutionTime = 1.03 s  ClockTime = 1 s

Courant Number mean: 0.000626329 max: 0.0111132
Time = 0.088

DILUPBiCGStab:  Solving for T, Initial residual = 0.0631803, Final residual = 4.59686e-07, No Iterations 2
DICPCG:  Solving for p_rgh, Initial residual = 0.00222509, Final residual = 1.93347e-05, No Iterations 25
time step continuity errors : sum local = 1.90044e-08, global = 2.50274e-20, cumulative = -8.54035e-19
DICPCG:  Solving for p_rgh, Initial residual = 0.000113162, Final residual = 6.79358e-09, No Iterations 78
time step continuity errors : sum local = 6.58853e-12, global = 2.60674e-20, cumulative = -8.27967e-19
DILUPBiCGStab:  Solving for epsilon, Initial residual = 0.00967971, Final residual = 5.66826e-08, No Iterations 2
DILUPBiCGStab:  Solving for k, Initial residual = 0.00352949, Final residual = 2.49649e-07, No Iterations 2
ExecutionTime = 1.04 s  ClockTime = 1 s

Courant Number mean: 0.000638309 max: 0.0112841
Time = 0.089

DILUPBiCGStab:  Solving for T, Initial residual = 0.0628364, Final residual = 4.45937e-07, No Iterations 2
DICPCG:  Solving for p_rgh, Initial residual = 0.00215305, Final residual = 1.91245e-05, No Iterations 25
time step continuity errors : sum local = 1.88733e-08, global = -2.05924e-20, cumulative = -8.4856e-19
DICPCG:  Solving for p_rgh, Initial residual = 0.000112996, Final residual = 6.72631e-09, No Iterations 78
time step continuity errors : sum local = 6.54847e-12, global = -2.15104e-20, cumulative = -8.7007e-19
DILUPBiCGStab:  Solving for epsilon, Initial residual = 0.0096264, Final residual = 5.45476e-08, No Iterations 2
DILUPBiCGStab:  Solving for k, Initial residual = 0.00350646, Final residual = 2.43165e-07, No Iterations 2
ExecutionTime = 1.05 s  ClockTime = 1 s

Courant Number mean: 0.000650378 max: 0.0114544
Time = 0.09

DILUPBiCGStab:  Solving for T, Initial residual = 0.0625011, Final residual = 4.32766e-07, No Iterations 2
DICPCG:  Solving for p_rgh, Initial residual = 0.00208223, Final residual = 1.89281e-05, No Iterations 25
time step continuity errors : sum local = 1.87511e-08, global = -4.80052e-20, cumulative = -9.18075e-19
DICPCG:  Solving for p_rgh, Initial residual = 0.000112854, Final residual = 6.66193e-09, No Iterations 78
time step continuity errors : sum local = 6.50986e-12, global = -4.84453e-20, cumulative = -9.66521e-19
DILUPBiCGStab:  Solving for epsilon, Initial residual = 0.00957358, Final residual = 5.25474e-08, No Iterations 2
DILUPBiCGStab:  Solving for k, Initial residual = 0.00348405, Final residual = 2.36912e-07, No Iterations 2
ExecutionTime = 1.06 s  ClockTime = 1 s

Courant Number mean: 0.000662529 max: 0.0116244
Time = 0.091

DILUPBiCGStab:  Solving for T, Initial residual = 0.0621739, Final residual = 4.2014e-07, No Iterations 2
DICPCG:  Solving for p_rgh, Initial residual = 0.0020126, Final residual = 1.87405e-05, No Iterations 25
time step continuity errors : sum local = 1.86341e-08, global = 4.59487e-21, cumulative = -9.61926e-19
DICPCG:  Solving for p_rgh, Initial residual = 0.000112727, Final residual = 6.60018e-09, No Iterations 78
time step continuity errors : sum local = 6.47267e-12, global = 3.52323e-21, cumulative = -9.58403e-19
DILUPBiCGStab:  Solving for epsilon, Initial residual = 0.00952103, Final residual = 5.06805e-08, No Iterations 2
DILUPBiCGStab:  Solving for k, Initial residual = 0.00346221, Final residual = 2.30882e-07, No Iterations 2
ExecutionTime = 1.07 s  ClockTime = 1 s

Courant Number mean: 0.000674756 max: 0.0117939
Time = 0.092

DILUPBiCGStab:  Solving for T, Initial residual = 0.0618545, Final residual = 4.08032e-07, No Iterations 2
DICPCG:  Solving for p_rgh, Initial residual = 0.00194413, Final residual = 1.85615e-05, No Iterations 25
time step continuity errors : sum local = 1.85218e-08, global = 7.48093e-20, cumulative = -8.83593e-19
DICPCG:  Solving for p_rgh, Initial residual = 0.000112608, Final residual = 6.53445e-09, No Iterations 78
time step continuity errors : sum local = 6.43013e-12, global = 7.49977e-20, cumulative = -8.08595e-19
DILUPBiCGStab:  Solving for epsilon, Initial residual = 0.00946898, Final residual = 4.90749e-08, No Iterations 2
DILUPBiCGStab:  Solving for k, Initial residual = 0.00344095, Final residual = 2.25089e-07, No Iterations 2
ExecutionTime = 1.08 s  ClockTime = 2 s

[...]
DICPCG:  Solving for p_rgh, Initial residual = 5.71523e-05, Final residual = 6.06099e-09, No Iterations 77
time step continuity errors : sum local = 1.80515e-11, global = 1.86661e-19, cumulative = 1.92073e-18
DILUPBiCGStab:  Solving for epsilon, Initial residual = 0.00225417, Final residual = 2.73438e-07, No Iterations 1
DILUPBiCGStab:  Solving for k, Initial residual = 0.0016424, Final residual = 4.49041e-07, No Iterations 1
ExecutionTime = 10.92 s  ClockTime = 11 s

Courant Number mean: 0.00689625 max: 0.0287279
Time = 0.978

DILUPBiCGStab:  Solving for T, Initial residual = 0.0237001, Final residual = 2.7613e-07, No Iterations 2
DICPCG:  Solving for p_rgh, Initial residual = 0.00128307, Final residual = 1.08077e-05, No Iterations 22
time step continuity errors : sum local = 3.26975e-08, global = -5.25344e-20, cumulative = 1.86819e-18
DICPCG:  Solving for p_rgh, Initial residual = 5.71596e-05, Final residual = 6.07195e-09, No Iterations 77
time step continuity errors : sum local = 1.81284e-11, global = -4.37051e-20, cumulative = 1.82449e-18
DILUPBiCGStab:  Solving for epsilon, Initial residual = 0.00224765, Final residual = 2.72457e-07, No Iterations 1
DILUPBiCGStab:  Solving for k, Initial residual = 0.00164136, Final residual = 4.48653e-07, No Iterations 1
ExecutionTime = 10.93 s  ClockTime = 11 s

Courant Number mean: 0.00689971 max: 0.0288476
Time = 0.979

DILUPBiCGStab:  Solving for T, Initial residual = 0.0236304, Final residual = 2.74998e-07, No Iterations 2
DICPCG:  Solving for p_rgh, Initial residual = 0.00127978, Final residual = 1.08096e-05, No Iterations 22
time step continuity errors : sum local = 3.27838e-08, global = -3.25047e-20, cumulative = 1.79198e-18
DICPCG:  Solving for p_rgh, Initial residual = 5.71667e-05, Final residual = 6.07815e-09, No Iterations 77
time step continuity errors : sum local = 1.81914e-11, global = -3.00808e-20, cumulative = 1.7619e-18
DILUPBiCGStab:  Solving for epsilon, Initial residual = 0.00224118, Final residual = 2.71478e-07, No Iterations 1
DILUPBiCGStab:  Solving for k, Initial residual = 0.00164032, Final residual = 4.48271e-07, No Iterations 1
ExecutionTime = 10.94 s  ClockTime = 11 s

Courant Number mean: 0.0069032 max: 0.0289673
Time = 0.98

DILUPBiCGStab:  Solving for T, Initial residual = 0.023561, Final residual = 2.73871e-07, No Iterations 2
DICPCG:  Solving for p_rgh, Initial residual = 0.00127651, Final residual = 1.08115e-05, No Iterations 22
time step continuity errors : sum local = 3.287e-08, global = -9.42702e-20, cumulative = 1.66763e-18
DICPCG:  Solving for p_rgh, Initial residual = 5.71738e-05, Final residual = 6.09284e-09, No Iterations 77
time step continuity errors : sum local = 1.828e-11, global = -1.02308e-19, cumulative = 1.56532e-18
DILUPBiCGStab:  Solving for epsilon, Initial residual = 0.00223473, Final residual = 2.70499e-07, No Iterations 1
DILUPBiCGStab:  Solving for k, Initial residual = 0.0016393, Final residual = 4.47888e-07, No Iterations 1
ExecutionTime = 10.95 s  ClockTime = 11 s

Courant Number mean: 0.00690668 max: 0.029087
Time = 0.981

DILUPBiCGStab:  Solving for T, Initial residual = 0.023492, Final residual = 2.72749e-07, No Iterations 2
DICPCG:  Solving for p_rgh, Initial residual = 0.00127324, Final residual = 1.08134e-05, No Iterations 22
time step continuity errors : sum local = 3.29563e-08, global = 6.41726e-20, cumulative = 1.6295e-18
DICPCG:  Solving for p_rgh, Initial residual = 5.71808e-05, Final residual = 6.10193e-09, No Iterations 77
time step continuity errors : sum local = 1.8352e-11, global = 4.97038e-20, cumulative = 1.6792e-18
DILUPBiCGStab:  Solving for epsilon, Initial residual = 0.00222829, Final residual = 2.6952e-07, No Iterations 1
DILUPBiCGStab:  Solving for k, Initial residual = 0.00163827, Final residual = 4.47503e-07, No Iterations 1
ExecutionTime = 10.96 s  ClockTime = 11 s

Courant Number mean: 0.00691019 max: 0.0292067
Time = 0.982

DILUPBiCGStab:  Solving for T, Initial residual = 0.0234234, Final residual = 2.71633e-07, No Iterations 2
DICPCG:  Solving for p_rgh, Initial residual = 0.00126998, Final residual = 1.08153e-05, No Iterations 22
time step continuity errors : sum local = 3.30426e-08, global = 3.72024e-20, cumulative = 1.7164e-18
DICPCG:  Solving for p_rgh, Initial residual = 5.71884e-05, Final residual = 6.11239e-09, No Iterations 77
time step continuity errors : sum local = 1.8428e-11, global = 2.95257e-20, cumulative = 1.74593e-18
DILUPBiCGStab:  Solving for epsilon, Initial residual = 0.00222186, Final residual = 2.68539e-07, No Iterations 1
DILUPBiCGStab:  Solving for k, Initial residual = 0.00163725, Final residual = 4.47117e-07, No Iterations 1
ExecutionTime = 10.97 s  ClockTime = 11 s

Courant Number mean: 0.00691373 max: 0.0293264
Time = 0.983

DILUPBiCGStab:  Solving for T, Initial residual = 0.0233551, Final residual = 2.70521e-07, No Iterations 2
DICPCG:  Solving for p_rgh, Initial residual = 0.00126673, Final residual = 1.08172e-05, No Iterations 22
time step continuity errors : sum local = 3.31289e-08, global = 1.89819e-19, cumulative = 1.93575e-18
DICPCG:  Solving for p_rgh, Initial residual = 5.71963e-05, Final residual = 6.11588e-09, No Iterations 77
time step continuity errors : sum local = 1.84833e-11, global = 1.95932e-19, cumulative = 2.13168e-18
DILUPBiCGStab:  Solving for epsilon, Initial residual = 0.00221542, Final residual = 2.67556e-07, No Iterations 1
DILUPBiCGStab:  Solving for k, Initial residual = 0.00163623, Final residual = 4.46729e-07, No Iterations 1
ExecutionTime = 10.98 s  ClockTime = 11 s

Courant Number mean: 0.00691728 max: 0.0294462
Time = 0.984

DILUPBiCGStab:  Solving for T, Initial residual = 0.0232872, Final residual = 2.69414e-07, No Iterations 2
DICPCG:  Solving for p_rgh, Initial residual = 0.00126349, Final residual = 1.08191e-05, No Iterations 22
time step continuity errors : sum local = 3.32152e-08, global = -4.07483e-20, cumulative = 2.09093e-18
DICPCG:  Solving for p_rgh, Initial residual = 5.72041e-05, Final residual = 6.12364e-09, No Iterations 77
time step continuity errors : sum local = 1.85516e-11, global = -5.24801e-20, cumulative = 2.03845e-18
DILUPBiCGStab:  Solving for epsilon, Initial residual = 0.00220895, Final residual = 2.66567e-07, No Iterations 1
DILUPBiCGStab:  Solving for k, Initial residual = 0.0016352, Final residual = 4.46339e-07, No Iterations 1
ExecutionTime = 10.99 s  ClockTime = 11 s

Courant Number mean: 0.00692086 max: 0.0295659
Time = 0.985

DILUPBiCGStab:  Solving for T, Initial residual = 0.0232196, Final residual = 2.68312e-07, No Iterations 2
DICPCG:  Solving for p_rgh, Initial residual = 0.00126026, Final residual = 1.0821e-05, No Iterations 22
time step continuity errors : sum local = 3.33016e-08, global = 1.15514e-19, cumulative = 2.15396e-18
DICPCG:  Solving for p_rgh, Initial residual = 5.72124e-05, Final residual = 6.11345e-09, No Iterations 77
time step continuity errors : sum local = 1.85651e-11, global = 1.10833e-19, cumulative = 2.2648e-18
DILUPBiCGStab:  Solving for epsilon, Initial residual = 0.0022025, Final residual = 2.65578e-07, No Iterations 1
DILUPBiCGStab:  Solving for k, Initial residual = 0.00163418, Final residual = 4.45952e-07, No Iterations 1
ExecutionTime = 11 s  ClockTime = 11 s

Courant Number mean: 0.0069245 max: 0.0296856
Time = 0.986

DILUPBiCGStab:  Solving for T, Initial residual = 0.0231523, Final residual = 2.67215e-07, No Iterations 2
DICPCG:  Solving for p_rgh, Initial residual = 0.00125704, Final residual = 1.08231e-05, No Iterations 22
time step continuity errors : sum local = 3.33886e-08, global = -7.66736e-20, cumulative = 2.18812e-18
DICPCG:  Solving for p_rgh, Initial residual = 5.72206e-05, Final residual = 6.14367e-09, No Iterations 77
time step continuity errors : sum local = 1.87019e-11, global = -8.05385e-20, cumulative = 2.10759e-18
DILUPBiCGStab:  Solving for epsilon, Initial residual = 0.00219606, Final residual = 2.6459e-07, No Iterations 1
DILUPBiCGStab:  Solving for k, Initial residual = 0.00163315, Final residual = 4.45564e-07, No Iterations 1
ExecutionTime = 11.01 s  ClockTime = 11 s

Courant Number mean: 0.00692815 max: 0.0298053
Time = 0.987

DILUPBiCGStab:  Solving for T, Initial residual = 0.0230854, Final residual = 2.66123e-07, No Iterations 2
DICPCG:  Solving for p_rgh, Initial residual = 0.00125382, Final residual = 1.0825e-05, No Iterations 22
time step continuity errors : sum local = 3.34749e-08, global = -2.41425e-20, cumulative = 2.08344e-18
DICPCG:  Solving for p_rgh, Initial residual = 5.72287e-05, Final residual = 6.14153e-09, No Iterations 77
time step continuity errors : sum local = 1.87399e-11, global = -2.59841e-20, cumulative = 2.05746e-18
DILUPBiCGStab:  Solving for epsilon, Initial residual = 0.00218967, Final residual = 2.63608e-07, No Iterations 1
DILUPBiCGStab:  Solving for k, Initial residual = 0.00163213, Final residual = 4.45175e-07, No Iterations 1
ExecutionTime = 11.02 s  ClockTime = 11 s

Courant Number mean: 0.00693184 max: 0.0299251
Time = 0.988

DILUPBiCGStab:  Solving for T, Initial residual = 0.0230189, Final residual = 2.65036e-07, No Iterations 2
DICPCG:  Solving for p_rgh, Initial residual = 0.00125062, Final residual = 1.08269e-05, No Iterations 22
time step continuity errors : sum local = 3.3561e-08, global = -5.64272e-20, cumulative = 2.00103e-18
DICPCG:  Solving for p_rgh, Initial residual = 5.7237e-05, Final residual = 6.1604e-09, No Iterations 77
time step continuity errors : sum local = 1.88423e-11, global = -5.71537e-20, cumulative = 1.94388e-18
DILUPBiCGStab:  Solving for epsilon, Initial residual = 0.0021833, Final residual = 2.6263e-07, No Iterations 1
DILUPBiCGStab:  Solving for k, Initial residual = 0.00163111, Final residual = 4.44782e-07, No Iterations 1
ExecutionTime = 11.03 s  ClockTime = 11 s

Courant Number mean: 0.00693555 max: 0.0300448
Time = 0.989

DILUPBiCGStab:  Solving for T, Initial residual = 0.0229527, Final residual = 2.63954e-07, No Iterations 2
DICPCG:  Solving for p_rgh, Initial residual = 0.00124742, Final residual = 1.0829e-05, No Iterations 22
time step continuity errors : sum local = 3.36481e-08, global = 6.23196e-20, cumulative = 2.0062e-18
DICPCG:  Solving for p_rgh, Initial residual = 5.72454e-05, Final residual = 6.16604e-09, No Iterations 77
time step continuity errors : sum local = 1.89047e-11, global = 5.66088e-20, cumulative = 2.06281e-18
DILUPBiCGStab:  Solving for epsilon, Initial residual = 0.00217695, Final residual = 2.61652e-07, No Iterations 1
DILUPBiCGStab:  Solving for k, Initial residual = 0.00163009, Final residual = 4.44388e-07, No Iterations 1
ExecutionTime = 11.04 s  ClockTime = 11 s

Courant Number mean: 0.00693947 max: 0.0301645
Time = 0.99

DILUPBiCGStab:  Solving for T, Initial residual = 0.0228868, Final residual = 2.62877e-07, No Iterations 2
DICPCG:  Solving for p_rgh, Initial residual = 0.00124423, Final residual = 1.08304e-05, No Iterations 22
time step continuity errors : sum local = 3.37327e-08, global = 4.32366e-20, cumulative = 2.10604e-18
DICPCG:  Solving for p_rgh, Initial residual = 5.72536e-05, Final residual = 6.14021e-09, No Iterations 77
time step continuity errors : sum local = 1.88693e-11, global = 4.80927e-20, cumulative = 2.15414e-18
DILUPBiCGStab:  Solving for epsilon, Initial residual = 0.00217062, Final residual = 2.60673e-07, No Iterations 1
DILUPBiCGStab:  Solving for k, Initial residual = 0.00162907, Final residual = 4.43994e-07, No Iterations 1
ExecutionTime = 11.05 s  ClockTime = 11 s

Courant Number mean: 0.00694346 max: 0.0302842
Time = 0.991

DILUPBiCGStab:  Solving for T, Initial residual = 0.0228213, Final residual = 2.61804e-07, No Iterations 2
DICPCG:  Solving for p_rgh, Initial residual = 0.00124106, Final residual = 1.08319e-05, No Iterations 22
time step continuity errors : sum local = 3.3818e-08, global = 1.23508e-19, cumulative = 2.27764e-18
DICPCG:  Solving for p_rgh, Initial residual = 5.72617e-05, Final residual = 6.17998e-09, No Iterations 77
time step continuity errors : sum local = 1.90371e-11, global = 1.10737e-19, cumulative = 2.38838e-18
DILUPBiCGStab:  Solving for epsilon, Initial residual = 0.0021643, Final residual = 2.59693e-07, No Iterations 1
DILUPBiCGStab:  Solving for k, Initial residual = 0.00162806, Final residual = 4.43598e-07, No Iterations 1
ExecutionTime = 11.06 s  ClockTime = 11 s

Courant Number mean: 0.00694758 max: 0.0304039
Time = 0.992

DILUPBiCGStab:  Solving for T, Initial residual = 0.0227561, Final residual = 2.60737e-07, No Iterations 2
DICPCG:  Solving for p_rgh, Initial residual = 0.00123789, Final residual = 1.08334e-05, No Iterations 22
time step continuity errors : sum local = 3.39029e-08, global = -8.80218e-20, cumulative = 2.30036e-18
DICPCG:  Solving for p_rgh, Initial residual = 5.72696e-05, Final residual = 6.18513e-09, No Iterations 77
time step continuity errors : sum local = 1.90979e-11, global = -1.00643e-19, cumulative = 2.19972e-18
DILUPBiCGStab:  Solving for epsilon, Initial residual = 0.00215799, Final residual = 2.58712e-07, No Iterations 1
DILUPBiCGStab:  Solving for k, Initial residual = 0.00162704, Final residual = 4.43199e-07, No Iterations 1
ExecutionTime = 11.07 s  ClockTime = 12 s

Courant Number mean: 0.00695171 max: 0.0305236
Time = 0.993

DILUPBiCGStab:  Solving for T, Initial residual = 0.0226912, Final residual = 2.59674e-07, No Iterations 2
DICPCG:  Solving for p_rgh, Initial residual = 0.00123473, Final residual = 1.08348e-05, No Iterations 22
time step continuity errors : sum local = 3.39877e-08, global = -1.41131e-20, cumulative = 2.1856e-18
DICPCG:  Solving for p_rgh, Initial residual = 5.72774e-05, Final residual = 6.1903e-09, No Iterations 77
time step continuity errors : sum local = 1.91587e-11, global = 1.13963e-20, cumulative = 2.197e-18
DILUPBiCGStab:  Solving for epsilon, Initial residual = 0.00215169, Final residual = 2.57732e-07, No Iterations 1
DILUPBiCGStab:  Solving for k, Initial residual = 0.00162602, Final residual = 4.42802e-07, No Iterations 1
ExecutionTime = 11.09 s  ClockTime = 12 s

Courant Number mean: 0.00695585 max: 0.0306433
Time = 0.994

DILUPBiCGStab:  Solving for T, Initial residual = 0.0226267, Final residual = 2.58616e-07, No Iterations 2
DICPCG:  Solving for p_rgh, Initial residual = 0.00123158, Final residual = 1.08362e-05, No Iterations 22
time step continuity errors : sum local = 3.40725e-08, global = 9.47e-20, cumulative = 2.2917e-18
DICPCG:  Solving for p_rgh, Initial residual = 5.72851e-05, Final residual = 6.19685e-09, No Iterations 77
time step continuity errors : sum local = 1.92238e-11, global = 1.10035e-19, cumulative = 2.40173e-18
DILUPBiCGStab:  Solving for epsilon, Initial residual = 0.00214542, Final residual = 2.56756e-07, No Iterations 1
DILUPBiCGStab:  Solving for k, Initial residual = 0.001625, Final residual = 4.42404e-07, No Iterations 1
ExecutionTime = 11.1 s  ClockTime = 12 s

Courant Number mean: 0.00696002 max: 0.030763
Time = 0.995

DILUPBiCGStab:  Solving for T, Initial residual = 0.0225624, Final residual = 2.57563e-07, No Iterations 2
DICPCG:  Solving for p_rgh, Initial residual = 0.00122844, Final residual = 1.08376e-05, No Iterations 22
time step continuity errors : sum local = 3.41571e-08, global = -2.0431e-19, cumulative = 2.19742e-18
DICPCG:  Solving for p_rgh, Initial residual = 5.72927e-05, Final residual = 6.20144e-09, No Iterations 77
time step continuity errors : sum local = 1.92832e-11, global = -2.15544e-19, cumulative = 1.98188e-18
DILUPBiCGStab:  Solving for epsilon, Initial residual = 0.00213917, Final residual = 2.55777e-07, No Iterations 1
DILUPBiCGStab:  Solving for k, Initial residual = 0.00162399, Final residual = 4.42004e-07, No Iterations 1
ExecutionTime = 11.11 s  ClockTime = 12 s

Courant Number mean: 0.00696422 max: 0.0308827
Time = 0.996

DILUPBiCGStab:  Solving for T, Initial residual = 0.0224986, Final residual = 2.56515e-07, No Iterations 2
DICPCG:  Solving for p_rgh, Initial residual = 0.00122531, Final residual = 1.08389e-05, No Iterations 22
time step continuity errors : sum local = 3.42416e-08, global = 1.67037e-20, cumulative = 1.99858e-18
DICPCG:  Solving for p_rgh, Initial residual = 5.73001e-05, Final residual = 6.20931e-09, No Iterations 77
time step continuity errors : sum local = 1.93528e-11, global = 1.83601e-20, cumulative = 2.01694e-18
DILUPBiCGStab:  Solving for epsilon, Initial residual = 0.00213292, Final residual = 2.54795e-07, No Iterations 1
DILUPBiCGStab:  Solving for k, Initial residual = 0.00162298, Final residual = 4.41601e-07, No Iterations 1
ExecutionTime = 11.12 s  ClockTime = 12 s

Courant Number mean: 0.00696841 max: 0.0310024
Time = 0.997

DILUPBiCGStab:  Solving for T, Initial residual = 0.022435, Final residual = 2.55471e-07, No Iterations 2
DICPCG:  Solving for p_rgh, Initial residual = 0.00122219, Final residual = 1.08401e-05, No Iterations 22
time step continuity errors : sum local = 3.43258e-08, global = -8.49313e-20, cumulative = 1.93201e-18
DICPCG:  Solving for p_rgh, Initial residual = 5.73074e-05, Final residual = 6.21473e-09, No Iterations 77
time step continuity errors : sum local = 1.94146e-11, global = -8.16709e-20, cumulative = 1.85034e-18
DILUPBiCGStab:  Solving for epsilon, Initial residual = 0.00212669, Final residual = 2.53811e-07, No Iterations 1
DILUPBiCGStab:  Solving for k, Initial residual = 0.00162196, Final residual = 4.41197e-07, No Iterations 1
ExecutionTime = 11.13 s  ClockTime = 12 s

Courant Number mean: 0.00697262 max: 0.031122
Time = 0.998

DILUPBiCGStab:  Solving for T, Initial residual = 0.0223717, Final residual = 2.54432e-07, No Iterations 2
DICPCG:  Solving for p_rgh, Initial residual = 0.00121908, Final residual = 1.08413e-05, No Iterations 22
time step continuity errors : sum local = 3.441e-08, global = 1.81198e-19, cumulative = 2.03154e-18
DICPCG:  Solving for p_rgh, Initial residual = 5.73145e-05, Final residual = 6.2176e-09, No Iterations 77
time step continuity errors : sum local = 1.94684e-11, global = 1.91212e-19, cumulative = 2.22275e-18
DILUPBiCGStab:  Solving for epsilon, Initial residual = 0.00212049, Final residual = 2.52831e-07, No Iterations 1
DILUPBiCGStab:  Solving for k, Initial residual = 0.00162095, Final residual = 4.4079e-07, No Iterations 1
ExecutionTime = 11.14 s  ClockTime = 12 s

Courant Number mean: 0.00697692 max: 0.0312416
Time = 0.999

DILUPBiCGStab:  Solving for T, Initial residual = 0.0223088, Final residual = 2.53397e-07, No Iterations 2
DICPCG:  Solving for p_rgh, Initial residual = 0.00121597, Final residual = 1.08426e-05, No Iterations 22
time step continuity errors : sum local = 3.44942e-08, global = -2.78295e-19, cumulative = 1.94446e-18
DICPCG:  Solving for p_rgh, Initial residual = 5.73215e-05, Final residual = 6.2224e-09, No Iterations 77
time step continuity errors : sum local = 1.95287e-11, global = -2.80356e-19, cumulative = 1.6641e-18
DILUPBiCGStab:  Solving for epsilon, Initial residual = 0.00211429, Final residual = 2.51849e-07, No Iterations 1
DILUPBiCGStab:  Solving for k, Initial residual = 0.00161993, Final residual = 4.4038e-07, No Iterations 1
ExecutionTime = 11.15 s  ClockTime = 12 s

Courant Number mean: 0.00698126 max: 0.0313613
Time = 1

DILUPBiCGStab:  Solving for T, Initial residual = 0.0222462, Final residual = 2.52367e-07, No Iterations 2
DICPCG:  Solving for p_rgh, Initial residual = 0.00121287, Final residual = 1.08436e-05, No Iterations 22
time step continuity errors : sum local = 3.45778e-08, global = 3.0556e-21, cumulative = 1.66716e-18
DICPCG:  Solving for p_rgh, Initial residual = 5.73286e-05, Final residual = 6.22393e-09, No Iterations 77
time step continuity errors : sum local = 1.95782e-11, global = -1.74772e-20, cumulative = 1.64968e-18
DILUPBiCGStab:  Solving for epsilon, Initial residual = 0.00210814, Final residual = 2.50868e-07, No Iterations 1
DILUPBiCGStab:  Solving for k, Initial residual = 0.00161891, Final residual = 4.3998e-07, No Iterations 1
ExecutionTime = 11.18 s  ClockTime = 12 s

End

